1

   Abaqus 2020                                  Date 12-kesä-2023   Time 13:08:20
   For use by OULUN YLIOPISTO under license from Dassault Systemes or its subsidiary.



                         The Abaqus Software is a product of:

                           Dassault Systemes SIMULIA Corp.
                           1301 Atwood Avenue, Suite 101W
                              Johnston, RI 02919, USA
 


                   The Abaqus Software is available only under license
                   from Dassault Systemes or its subsidiary and may be
                   used or reproduced only in accordance with the terms
                   of such license.
 
                          On machine KO071026 
                          you are authorized to run
                          Abaqus/Foundation until 30-Dec-2023

                          Your site id is: 100000000002728 


 
                    For assistance or any other information you may
                    obtain contact information for your local office
                    from the world wide web at:

                      http://www.3ds.com/products/simulia/locations/

 
                * * * * * * * * * * * * * * * * * * * * * * * * * * * * * * 
                *                                                         * 
                *                   *****************                     * 
                *                   *  N O T I C E  *                     * 
                *                   *****************                     * 
                *                                                         * 
                *                                                         * 
                *                       Abaqus 2020                       * 
                *                                                         * 
                *          BUILD ID: 2019_09_13-20.49.31 163176           * 
                *                                                         * 
                *                                                         * 
                *  Please make sure you are using                         * 
                *  release Abaqus 2020 manuals                            * 
                *  plus the notes accompanying this release.              * 
                *                                                         * 
                *                                                         * 
                *                                                         * 
                *                                                         * 
                *                                                         * 
                *   This program may not be used for commercial purposes  * 
                *           without payment of a commercial fee.          * 
                *                                                         * 
                * * * * * * * * * * * * * * * * * * * * * * * * * * * * * * 


 



     PROCESSING PART, INSTANCE, AND ASSEMBLY INFORMATION
   *******************************************************


     END PROCESSING PART, INSTANCE, AND ASSEMBLY INFORMATION
   ***********************************************************




     OPTIONS BEING PROCESSED
   ***************************


  *Heading
  *Node
  *Element, type=C3D10
  *Nset, nset=ASSEMBLY_P000516_A_1-TAITTOPUOMI_FEM-1_INITIALLYINVALID
  *Nset, nset=ASSEMBLY_P000516_A_1-TAITTOPUOMI_FEM-1_SET-12
  *Nset, nset=ASSEMBLY_P000516_A_1-TAITTOPUOMI_FEM-1_SET-2
  *Elset, elset=ASSEMBLY_P000516_A_1-TAITTOPUOMI_FEM-1_SET-12
  *Elset, elset=ASSEMBLY_P000516_A_1-TAITTOPUOMI_FEM-1_SET-2
  *material, name=MATERIAL-1
  *density
  *elastic
  *solidsection, elset=ASSEMBLY_P000516_A_1-TAITTOPUOMI_FEM-1_SET-12, material=MATERIAL-1
  *solidsection, elset=ASSEMBLY_P000516_A_1-TAITTOPUOMI_FEM-1_SET-12, material=MATERIAL-1
  
                               E L E M E N T   Q U A L I T Y  C H E C K S        
  
  
 ***NOTES: DISTORTED ISOPARAMETRIC ELEMENTS: ANGLE BETWEEN ISOPARAMETRIC LINES 
           IS LESS THAN 45 DEGREES OR GREATER THAN 135 DEGREES.
  
           TETRAHEDRAL QUALITY MEASURE: VOLUME OF TETRAHEDRON DIVIDED BY THE 
           VOLUME OF EQUILATERAL TETRAHEDRON WITH SAME CIRCUMSPHERE RADIUS; 
           0 FOR DEGENERATE TETRAHEDRON AND 1 FOR EQUILATERIAL TETRAHEDRON. IT 
           IS RECOMMENDED THAT THE TETRAHEDRAL QUALITY MEASURE BE GREATER THAN 
           0.02, THE MIN INTERIOR (DIHEDRAL) ANGLE BE GREATER THAN 10 DEGREES, 
           AND THE MAX INTERIOR (DIHEDRAL) ANGLE BE LESS THAN 160 DEGREES. 
  
           MODIFIED TETRAHEDRAL QUALITY MEASURE: ANGLES BETWEEN THE TWO LINE 
           SEGMENTS ON EACH EDGE; THE EDGES OF MODIFIED TETRAHEDRAL SHOULD BE 
           AS STRAIGHT AS POSSIBLE. IT IS RECOMMENDED THAT THE ANGLE BETWEEN 
           THE TWO LINE SEGMENTS ON EACH EDGE IS BETWEEN 160 AND 180 DEGREES. 
  
           TRIANGULAR QUALITY MEASURE: AREA OF TRIANGLE DIVIDED BY THE AREA OF 
           EQUILATERAL TRIANGLE WITH SAME CIRCUMCIRCLE RADIUS; 0 FOR DEGENERATE 
           TRIANGLE AND 1 FOR EQUILATERAL TRIANGLE. IT IS RECOMMENDED THAT THE
           TRIANGULAR QUALITY MEASURE BE GREATER THAN 0.01, THE MIN INTERIOR 
           ANGLE BE GREATER THAN 10 DEGREES, AND THE MAX INTERIOR ANGLE BE LESS 
           THAN 160 DEGREES. 
  
           NODAL ADJUSTMENTS ARISING FROM CONTACT INTERACTIONS AND/OR TIE 
           CONSTRAINTS CAN CAUSE SEVERE ELEMENT DISTORTION. IT MAY BE NECESSARY 
           TO REMESH IN ORDER TO REDUCE THE AMOUNT OF ADJUSTMENT. 

 ***WARNING: 1796 elements are distorted. Either the isoparametric angles are 
             out of the suggested limits or the triangular or tetrahedral 
             quality measure is bad. The elements have been identified in 
             element set WarnElemDistorted.
  
 --------------------------------------------------------------------------------
 Distorted tetrahedral elements
  
                 Element                 Quality measure     Min angle        Max angle     Adjusted nodes 
 --------------------------------------- ---------------- ---------------- ---------------- -------------- 
         P000516_A_1-TAITTOPUOMI_FEM-1.1        0.0403364          4.39358          92.4039       NO       
         P000516_A_1-TAITTOPUOMI_FEM-1.2      7.02135E-05          2.47185          170.197       NO       
         P000516_A_1-TAITTOPUOMI_FEM-1.3      3.34514E-06          2.06899          160.491       NO       
         P000516_A_1-TAITTOPUOMI_FEM-1.4       0.00502457          16.3249            147.3       NO       
         P000516_A_1-TAITTOPUOMI_FEM-1.5       0.00508834          9.55983          97.1895       NO       
         P000516_A_1-TAITTOPUOMI_FEM-1.6        0.0403364          5.01051              90.       NO       
         P000516_A_1-TAITTOPUOMI_FEM-1.7      7.93305E-07          2.91599          144.114       NO       
         P000516_A_1-TAITTOPUOMI_FEM-1.9        0.0392982          5.12908          105.964       NO       
        P000516_A_1-TAITTOPUOMI_FEM-1.10        0.0392982          2.41103          174.871       NO       
        P000516_A_1-TAITTOPUOMI_FEM-1.11        0.0400384          5.14402          97.1158       NO       
        P000516_A_1-TAITTOPUOMI_FEM-1.12      3.02939E-06          2.54174          158.118       NO       
        P000516_A_1-TAITTOPUOMI_FEM-1.13      1.32438E-06          2.16391          138.691       NO       
        P000516_A_1-TAITTOPUOMI_FEM-1.14        0.0400384          4.52841          96.2917       NO       
        P000516_A_1-TAITTOPUOMI_FEM-1.15      2.30191E-06          2.86065          135.586       NO       
        P000516_A_1-TAITTOPUOMI_FEM-1.17         0.112995          5.01391          91.2957       NO       
        P000516_A_1-TAITTOPUOMI_FEM-1.18      5.95339E-06          2.40395          174.986       NO       
        P000516_A_1-TAITTOPUOMI_FEM-1.19        0.0403364          5.01051              90.       NO       
        P000516_A_1-TAITTOPUOMI_FEM-1.20        0.0216068           4.4818          93.3142       NO       
        P000516_A_1-TAITTOPUOMI_FEM-1.21        0.0282206          8.04799          110.492       NO       
        P000516_A_1-TAITTOPUOMI_FEM-1.22        0.0282206          2.43309          118.192       NO       
        P000516_A_1-TAITTOPUOMI_FEM-1.23      0.000248459          6.95494          170.068       NO       
        P000516_A_1-TAITTOPUOMI_FEM-1.24       0.00580518          28.7114          112.516       NO       
        P000516_A_1-TAITTOPUOMI_FEM-1.25       0.00857411          16.3473          147.339       NO       
        P000516_A_1-TAITTOPUOMI_FEM-1.26      3.37332E-07          2.45068          171.955       NO       
        P000516_A_1-TAITTOPUOMI_FEM-1.27          0.07799          3.51791          93.4888       NO       
        P000516_A_1-TAITTOPUOMI_FEM-1.29      6.32557E-07         0.973497          177.555       NO       
        P000516_A_1-TAITTOPUOMI_FEM-1.31      5.97016E-07          6.48587          170.499       NO       
        P000516_A_1-TAITTOPUOMI_FEM-1.32       0.00360813          5.50625          163.067       NO       
        P000516_A_1-TAITTOPUOMI_FEM-1.33        0.0633989          4.92186          97.3898       NO       
        P000516_A_1-TAITTOPUOMI_FEM-1.34      2.92744E-07          1.08063          143.283       NO       
        P000516_A_1-TAITTOPUOMI_FEM-1.35       0.00673547          13.1064          153.811       NO       
        P000516_A_1-TAITTOPUOMI_FEM-1.36      2.54344E-06          2.54026          129.208       NO       
        P000516_A_1-TAITTOPUOMI_FEM-1.37       0.00385464          13.0887           153.78       NO       
        P000516_A_1-TAITTOPUOMI_FEM-1.38        0.0326867          3.91349          97.5248       NO       
        P000516_A_1-TAITTOPUOMI_FEM-1.39        0.0173775          43.7096          92.1006       NO       
        P000516_A_1-TAITTOPUOMI_FEM-1.40      2.54344E-06          3.01923          136.266       NO       
        P000516_A_1-TAITTOPUOMI_FEM-1.42        0.0732168          10.3172          162.082       NO       
        P000516_A_1-TAITTOPUOMI_FEM-1.45         0.115084          5.95647          99.9366       NO       
        P000516_A_1-TAITTOPUOMI_FEM-1.46      5.56908E-07          1.36978          171.392       NO       
        P000516_A_1-TAITTOPUOMI_FEM-1.47       0.00216739           11.125          114.477       NO       
        P000516_A_1-TAITTOPUOMI_FEM-1.48        0.0512892          4.98057          96.8532       NO       
        P000516_A_1-TAITTOPUOMI_FEM-1.49       0.00323503          1.70536            112.5       NO       
        P000516_A_1-TAITTOPUOMI_FEM-1.50      9.77123E-07         0.941472          171.289       NO       
        P000516_A_1-TAITTOPUOMI_FEM-1.51        0.0403364          2.40394          174.989       NO       
        P000516_A_1-TAITTOPUOMI_FEM-1.52       0.00323503          28.6751          112.482       NO       
        P000516_A_1-TAITTOPUOMI_FEM-1.53       0.00323503          28.6964            112.5       NO       
        P000516_A_1-TAITTOPUOMI_FEM-1.54         0.103126          5.01391          91.0258       NO       
        P000516_A_1-TAITTOPUOMI_FEM-1.56       0.00323503          28.6751          112.482       NO       
        P000516_A_1-TAITTOPUOMI_FEM-1.57        0.0216068          5.01391          93.7071       NO       
        P000516_A_1-TAITTOPUOMI_FEM-1.58      1.10493E-05          2.41104          174.986       NO       
        P000516_A_1-TAITTOPUOMI_FEM-1.59       0.00323503          28.6751          112.482       NO       
        P000516_A_1-TAITTOPUOMI_FEM-1.60       0.00138504          13.6619          149.733       NO       
        P000516_A_1-TAITTOPUOMI_FEM-1.61       1.4501E-06          2.54027          137.455       NO       
        P000516_A_1-TAITTOPUOMI_FEM-1.62       0.00465746          8.02472          102.666       NO       
        P000516_A_1-TAITTOPUOMI_FEM-1.65        0.0142187          13.3784          153.089       NO       
        P000516_A_1-TAITTOPUOMI_FEM-1.66        0.0400384          5.12908          97.1223       NO       
        P000516_A_1-TAITTOPUOMI_FEM-1.70       0.00157174          34.8145          158.395       NO       
        P000516_A_1-TAITTOPUOMI_FEM-1.78       0.00234535          20.2777          124.151       NO       
        P000516_A_1-TAITTOPUOMI_FEM-1.79      6.10901E-05          5.95681          171.867       NO       
        P000516_A_1-TAITTOPUOMI_FEM-1.80       0.00804096          21.5995          129.832       NO       
        P000516_A_1-TAITTOPUOMI_FEM-1.83       0.00950034          22.4932          123.775       NO       
        P000516_A_1-TAITTOPUOMI_FEM-1.84      2.09349E-06          2.64249          174.862       NO       
        P000516_A_1-TAITTOPUOMI_FEM-1.86       0.00713556          23.9958          154.699       NO       
        P000516_A_1-TAITTOPUOMI_FEM-1.87       0.00639887          17.3571          136.278       NO       
        P000516_A_1-TAITTOPUOMI_FEM-1.94       0.00781792          30.4589          143.288       NO       
        P000516_A_1-TAITTOPUOMI_FEM-1.96       0.00273542          10.1673           161.49       NO       
       P000516_A_1-TAITTOPUOMI_FEM-1.100       0.00137509          8.52676          116.792       NO       
       P000516_A_1-TAITTOPUOMI_FEM-1.107       0.00502457          16.3249            147.3       NO       
       P000516_A_1-TAITTOPUOMI_FEM-1.112      1.16691E-05          18.3605          160.936       NO       
       P000516_A_1-TAITTOPUOMI_FEM-1.113         0.013097            18.79          140.241       NO       
       P000516_A_1-TAITTOPUOMI_FEM-1.114        0.0146987          9.64307          139.942       NO       
       P000516_A_1-TAITTOPUOMI_FEM-1.116       0.00323503          28.6964            112.5       NO       
       P000516_A_1-TAITTOPUOMI_FEM-1.117       0.00323503          28.7214          112.489       NO       
       P000516_A_1-TAITTOPUOMI_FEM-1.119         0.014531          5.01391          93.9786       NO       
       P000516_A_1-TAITTOPUOMI_FEM-1.120        0.0338081          3.70216          95.6801       NO       
       P000516_A_1-TAITTOPUOMI_FEM-1.122        0.0623646           5.8634          91.1796       NO       
       P000516_A_1-TAITTOPUOMI_FEM-1.124       0.00194245          11.9589          115.429       NO       
       P000516_A_1-TAITTOPUOMI_FEM-1.125       0.00323503          1.70536            112.5       NO       
       P000516_A_1-TAITTOPUOMI_FEM-1.126       0.00323503          28.6964            112.5       NO       
       P000516_A_1-TAITTOPUOMI_FEM-1.128      0.000101423          5.46451          171.032       NO       
       P000516_A_1-TAITTOPUOMI_FEM-1.131       0.00502457          1.91725           147.35       NO       
       P000516_A_1-TAITTOPUOMI_FEM-1.132        0.0248085           7.2989          94.1804       NO       
       P000516_A_1-TAITTOPUOMI_FEM-1.133      7.42593E-06          1.40769          174.379       NO       
       P000516_A_1-TAITTOPUOMI_FEM-1.134       0.00323503          28.6751          112.482       NO       
       P000516_A_1-TAITTOPUOMI_FEM-1.135       0.00502457          16.3249            147.3       NO       
       P000516_A_1-TAITTOPUOMI_FEM-1.138         0.104371          7.49482          160.386       NO       
       P000516_A_1-TAITTOPUOMI_FEM-1.139       0.00947789          10.8314          155.101       NO       
       P000516_A_1-TAITTOPUOMI_FEM-1.142       0.00323503          28.6751          112.482       NO       
       P000516_A_1-TAITTOPUOMI_FEM-1.144       0.00465746          6.46117          95.0312       NO       
       P000516_A_1-TAITTOPUOMI_FEM-1.146       0.00897033          9.13666          107.299       NO       
       P000516_A_1-TAITTOPUOMI_FEM-1.147       0.00797922          28.7041          112.522       NO       
       P000516_A_1-TAITTOPUOMI_FEM-1.148      2.55271E-07          1.59594          167.456       NO       
       P000516_A_1-TAITTOPUOMI_FEM-1.149       0.00586824           26.286          108.694       NO       
       P000516_A_1-TAITTOPUOMI_FEM-1.155      9.77123E-07          2.76612          165.616       NO       
       P000516_A_1-TAITTOPUOMI_FEM-1.156       0.00323503          28.7214          112.489       NO       
       P000516_A_1-TAITTOPUOMI_FEM-1.158       0.00112522           18.081          162.203       NO       
       P000516_A_1-TAITTOPUOMI_FEM-1.163         0.102032          7.99288          102.123       NO       
       P000516_A_1-TAITTOPUOMI_FEM-1.165        0.0475744          9.84746          97.0178       NO       
       P000516_A_1-TAITTOPUOMI_FEM-1.166       0.00908604          19.5123           145.23       NO       
       P000516_A_1-TAITTOPUOMI_FEM-1.167      0.000830576          5.90187          164.118       NO       
       P000516_A_1-TAITTOPUOMI_FEM-1.168       0.00046252          6.19862          165.773       NO       
       P000516_A_1-TAITTOPUOMI_FEM-1.170      3.28838E-07          2.88874          143.528       NO       
       P000516_A_1-TAITTOPUOMI_FEM-1.171       0.00385464          13.0887           153.78       NO       
       P000516_A_1-TAITTOPUOMI_FEM-1.172        0.0141325          13.2456          142.402       NO       
       P000516_A_1-TAITTOPUOMI_FEM-1.174       0.00627164           5.2644           101.22       NO       
       P000516_A_1-TAITTOPUOMI_FEM-1.176       0.00907727          8.41655          141.408       NO       
       P000516_A_1-TAITTOPUOMI_FEM-1.177       0.00234535          20.2778          124.151       NO       
       P000516_A_1-TAITTOPUOMI_FEM-1.179        0.0157285          12.6758           148.34       NO       
       P000516_A_1-TAITTOPUOMI_FEM-1.180       0.00234535          1.21277          124.151       NO       
       P000516_A_1-TAITTOPUOMI_FEM-1.181       0.00234535          20.2605          124.126       NO       
       P000516_A_1-TAITTOPUOMI_FEM-1.182       0.00385464          13.1123          153.823       NO       
       P000516_A_1-TAITTOPUOMI_FEM-1.183      1.71059E-07         0.649869          167.562       NO       
       P000516_A_1-TAITTOPUOMI_FEM-1.184        0.0767459          9.89829          98.3889       NO       
       P000516_A_1-TAITTOPUOMI_FEM-1.185       0.00444765          20.2862          124.161       NO       
       P000516_A_1-TAITTOPUOMI_FEM-1.186         0.164357          8.64267          105.968       NO       
       P000516_A_1-TAITTOPUOMI_FEM-1.187       0.00413974           14.784           141.74       NO       
       P000516_A_1-TAITTOPUOMI_FEM-1.188        0.0105927          6.17001          94.0503       NO       
       P000516_A_1-TAITTOPUOMI_FEM-1.189        0.0185364          14.5949          99.9962       NO       
       P000516_A_1-TAITTOPUOMI_FEM-1.191       0.00514905          1.77714           135.63       NO       
       P000516_A_1-TAITTOPUOMI_FEM-1.192      3.18109E-07           1.3698          161.547       NO       
       P000516_A_1-TAITTOPUOMI_FEM-1.193        0.0060203          9.91435          157.538       NO       
       P000516_A_1-TAITTOPUOMI_FEM-1.195       0.00514905          43.6795           92.008       NO       
       P000516_A_1-TAITTOPUOMI_FEM-1.196        0.0120792          14.8513          142.138       NO       
       P000516_A_1-TAITTOPUOMI_FEM-1.197       0.00490109          5.55645           109.84       NO       
       P000516_A_1-TAITTOPUOMI_FEM-1.198       0.00234535          20.2606          124.126       NO       
       P000516_A_1-TAITTOPUOMI_FEM-1.199        0.0880217          6.03637          90.3536       NO       
       P000516_A_1-TAITTOPUOMI_FEM-1.200      3.28137E-06          2.82687          157.766       NO       
       P000516_A_1-TAITTOPUOMI_FEM-1.202       0.00627164          9.16053          95.0828       NO       
       P000516_A_1-TAITTOPUOMI_FEM-1.203       0.00680372          8.77888          154.973       NO       
       P000516_A_1-TAITTOPUOMI_FEM-1.204       0.00514908          43.7097          92.0059       NO       
       P000516_A_1-TAITTOPUOMI_FEM-1.205      1.88016E-06          2.54174          166.422       NO       
       P000516_A_1-TAITTOPUOMI_FEM-1.208      1.88016E-06          2.13834          157.883       NO       
       P000516_A_1-TAITTOPUOMI_FEM-1.209       0.00563949          13.4957          138.311       NO       
       P000516_A_1-TAITTOPUOMI_FEM-1.210        0.0171839          7.65158           155.62       NO       
       P000516_A_1-TAITTOPUOMI_FEM-1.211       0.00210871          18.7774          142.749       NO       
       P000516_A_1-TAITTOPUOMI_FEM-1.212        0.0563922          4.23395          90.5747       NO       
       P000516_A_1-TAITTOPUOMI_FEM-1.213       0.00489492          14.3024          149.982       NO       
       P000516_A_1-TAITTOPUOMI_FEM-1.214        0.0338081           4.5613          91.3926       NO       
       P000516_A_1-TAITTOPUOMI_FEM-1.215      8.06885E-07           2.4645          166.438       NO       
       P000516_A_1-TAITTOPUOMI_FEM-1.216        0.0531773          4.10879          103.471       NO       
       P000516_A_1-TAITTOPUOMI_FEM-1.218         0.114854          5.16892          94.2099       NO       
       P000516_A_1-TAITTOPUOMI_FEM-1.219       0.00709271          21.8414          136.258       NO       
       P000516_A_1-TAITTOPUOMI_FEM-1.220        0.0010499          10.1711          125.708       NO       
       P000516_A_1-TAITTOPUOMI_FEM-1.221       0.00323503          1.15744          141.161       NO       
       P000516_A_1-TAITTOPUOMI_FEM-1.222         0.015208          8.60442           155.33       NO       
       P000516_A_1-TAITTOPUOMI_FEM-1.223      6.02201E-06          2.41102          175.518       NO       
       P000516_A_1-TAITTOPUOMI_FEM-1.224        0.0105894          7.76267          115.162       NO       
       P000516_A_1-TAITTOPUOMI_FEM-1.225       0.00323503          1.15744           141.16       NO       
       P000516_A_1-TAITTOPUOMI_FEM-1.226      7.93305E-07          1.67183          109.251       NO       
       P000516_A_1-TAITTOPUOMI_FEM-1.227       0.00502457         0.999168          163.645       NO       
       P000516_A_1-TAITTOPUOMI_FEM-1.228      6.02201E-06          2.07127           175.14       NO       
       P000516_A_1-TAITTOPUOMI_FEM-1.229       0.00323503          28.6751          112.482       NO       
       P000516_A_1-TAITTOPUOMI_FEM-1.230        0.0681229          6.94829           91.939       NO       
       P000516_A_1-TAITTOPUOMI_FEM-1.232      0.000605587          9.15275          167.557       NO       
       P000516_A_1-TAITTOPUOMI_FEM-1.233        0.0978706          5.00966              90.       NO       
       P000516_A_1-TAITTOPUOMI_FEM-1.234      2.92744E-07           2.8519          129.482       NO       
       P000516_A_1-TAITTOPUOMI_FEM-1.244         0.134492           7.3297          99.5438       NO       
       P000516_A_1-TAITTOPUOMI_FEM-1.246        0.0171228          17.1014          127.415       NO       
       P000516_A_1-TAITTOPUOMI_FEM-1.257        0.0305634          2.89415          109.722       NO       
       P000516_A_1-TAITTOPUOMI_FEM-1.264        0.0195321          22.3787          128.432       NO       
       P000516_A_1-TAITTOPUOMI_FEM-1.265        0.0403364          5.01051              90.       NO       
       P000516_A_1-TAITTOPUOMI_FEM-1.266       0.00234535          20.2605          124.126       NO       
       P000516_A_1-TAITTOPUOMI_FEM-1.267        0.0112778          15.4289          139.052       NO       
       P000516_A_1-TAITTOPUOMI_FEM-1.268       0.00323503          1.15744          141.161       NO       
       P000516_A_1-TAITTOPUOMI_FEM-1.269       0.00136452          11.5919          159.252       NO       
       P000516_A_1-TAITTOPUOMI_FEM-1.270      0.000618795          10.2084          161.745       NO       
       P000516_A_1-TAITTOPUOMI_FEM-1.271       0.00833962          15.3281          145.287       NO       
       P000516_A_1-TAITTOPUOMI_FEM-1.278         0.135471          7.65577          98.7552       NO       
       P000516_A_1-TAITTOPUOMI_FEM-1.283        0.0400384          2.44272          97.1223       NO       
       P000516_A_1-TAITTOPUOMI_FEM-1.284       0.00802601          12.5288          157.478       NO       
       P000516_A_1-TAITTOPUOMI_FEM-1.285       0.00784177          15.3442          142.698       NO       
       P000516_A_1-TAITTOPUOMI_FEM-1.287        0.0267144          10.1889          160.517       NO       
       P000516_A_1-TAITTOPUOMI_FEM-1.288        0.0169055          16.6955          127.728       NO       
       P000516_A_1-TAITTOPUOMI_FEM-1.289      0.000521489          6.79191          162.739       NO       
       P000516_A_1-TAITTOPUOMI_FEM-1.290         0.004659          12.8098          131.076       NO       
       P000516_A_1-TAITTOPUOMI_FEM-1.291      0.000759576          12.7776          166.997       NO       
       P000516_A_1-TAITTOPUOMI_FEM-1.292       0.00323503          28.6964            112.5       NO       
       P000516_A_1-TAITTOPUOMI_FEM-1.293       0.00187659          34.4174          147.407       NO       
       P000516_A_1-TAITTOPUOMI_FEM-1.296        0.0036623          13.1128          142.204       NO       
       P000516_A_1-TAITTOPUOMI_FEM-1.298       0.00566695          24.3996          115.617       NO       
       P000516_A_1-TAITTOPUOMI_FEM-1.301       0.00054731          10.1532          166.668       NO       
       P000516_A_1-TAITTOPUOMI_FEM-1.313       0.00234535          0.85292          144.402       NO       
       P000516_A_1-TAITTOPUOMI_FEM-1.315       0.00124443          13.1395          130.426       NO       
       P000516_A_1-TAITTOPUOMI_FEM-1.316       0.00280782          7.60403          158.671       NO       
       P000516_A_1-TAITTOPUOMI_FEM-1.317        0.0400384          2.41103           101.64       NO       
       P000516_A_1-TAITTOPUOMI_FEM-1.318       0.00514905          43.6507           92.006       NO       
       P000516_A_1-TAITTOPUOMI_FEM-1.319       0.00404452          5.61073           169.58       NO       
       P000516_A_1-TAITTOPUOMI_FEM-1.320      3.28838E-07         0.983266          139.193       NO       
       P000516_A_1-TAITTOPUOMI_FEM-1.321       0.00385464         0.793176          166.888       NO       
       P000516_A_1-TAITTOPUOMI_FEM-1.322        0.0392982          5.15919          105.948       NO       
       P000516_A_1-TAITTOPUOMI_FEM-1.323         0.103425          5.97848          103.091       NO       
       P000516_A_1-TAITTOPUOMI_FEM-1.324       0.00754155          13.9496          159.169       NO       
       P000516_A_1-TAITTOPUOMI_FEM-1.325      1.32438E-06          2.57212          135.599       NO       
       P000516_A_1-TAITTOPUOMI_FEM-1.326        0.0184754          43.6984          92.1068       NO       
       P000516_A_1-TAITTOPUOMI_FEM-1.328       1.4501E-06          2.28396          136.302       NO       
       P000516_A_1-TAITTOPUOMI_FEM-1.330         0.101008          5.63974          103.736       NO       
       P000516_A_1-TAITTOPUOMI_FEM-1.331       0.00234535          0.85292          144.402       NO       
       P000516_A_1-TAITTOPUOMI_FEM-1.332        0.0185114          13.6634          155.803       NO       
       P000516_A_1-TAITTOPUOMI_FEM-1.333        0.0392982          5.12908          105.964       NO       
       P000516_A_1-TAITTOPUOMI_FEM-1.337       0.00514908          2.54025          92.0079       NO       
       P000516_A_1-TAITTOPUOMI_FEM-1.338       0.00234535          20.2953          124.142       NO       
       P000516_A_1-TAITTOPUOMI_FEM-1.339       0.00695649          16.0144          161.384       NO       
       P000516_A_1-TAITTOPUOMI_FEM-1.340       0.00950929           44.813          147.014       NO       
       P000516_A_1-TAITTOPUOMI_FEM-1.342       2.4942E-07         0.829086          164.117       NO       
       P000516_A_1-TAITTOPUOMI_FEM-1.343       0.00130354          10.4203          161.097       NO       
       P000516_A_1-TAITTOPUOMI_FEM-1.345       0.00398585          15.7014          133.369       NO       
       P000516_A_1-TAITTOPUOMI_FEM-1.346         0.036199           3.3304          112.338       NO       
       P000516_A_1-TAITTOPUOMI_FEM-1.348        0.0113858          6.02576          120.358       NO       
       P000516_A_1-TAITTOPUOMI_FEM-1.349          0.13334          6.71961              90.       NO       
       P000516_A_1-TAITTOPUOMI_FEM-1.350        0.0147748          15.1125          100.941       NO       
       P000516_A_1-TAITTOPUOMI_FEM-1.351       4.5238E-08          1.45198          169.571       NO       
       P000516_A_1-TAITTOPUOMI_FEM-1.352      5.56908E-07          1.62837          158.101       NO       
       P000516_A_1-TAITTOPUOMI_FEM-1.353       0.00323503          1.15744          141.161       NO       
       P000516_A_1-TAITTOPUOMI_FEM-1.354      3.37332E-07         0.833985          162.379       NO       
       P000516_A_1-TAITTOPUOMI_FEM-1.355      0.000695307            6.159          163.609       NO       
       P000516_A_1-TAITTOPUOMI_FEM-1.356      2.30191E-06          2.57211          130.426       NO       
       P000516_A_1-TAITTOPUOMI_FEM-1.357        0.0556835           5.2625          97.7377       NO       
       P000516_A_1-TAITTOPUOMI_FEM-1.360       0.00502457          16.3546           147.35       NO       
       P000516_A_1-TAITTOPUOMI_FEM-1.362       0.00310097          15.1895          152.858       NO       
       P000516_A_1-TAITTOPUOMI_FEM-1.375        0.0062586          12.8874          156.024       NO       
       P000516_A_1-TAITTOPUOMI_FEM-1.376       0.00122956          15.0348          163.019       NO       
       P000516_A_1-TAITTOPUOMI_FEM-1.377        0.0400384          4.52841          96.2917       NO       
       P000516_A_1-TAITTOPUOMI_FEM-1.380      0.000275174           6.5104          169.517       NO       
       P000516_A_1-TAITTOPUOMI_FEM-1.382       0.00124443           46.099          159.257       NO       
       P000516_A_1-TAITTOPUOMI_FEM-1.383        0.0150232          16.8246          145.837       NO       
       P000516_A_1-TAITTOPUOMI_FEM-1.388       0.00391543          10.0671          162.581       NO       
       P000516_A_1-TAITTOPUOMI_FEM-1.394       0.00502457          16.3249            147.3       NO       
       P000516_A_1-TAITTOPUOMI_FEM-1.395      0.000255227          4.40509          169.079       NO       
       P000516_A_1-TAITTOPUOMI_FEM-1.400       0.00514908          43.6508          92.0059       NO       
       P000516_A_1-TAITTOPUOMI_FEM-1.401       0.00555297          7.81091          95.9099       NO       
       P000516_A_1-TAITTOPUOMI_FEM-1.404         0.103126          4.85998          90.9946       NO       
       P000516_A_1-TAITTOPUOMI_FEM-1.406        0.0115262          10.2551          97.2657       NO       
       P000516_A_1-TAITTOPUOMI_FEM-1.407        0.0392982          2.41103          174.871       NO       
       P000516_A_1-TAITTOPUOMI_FEM-1.408        0.0392982          5.15919          105.948       NO       
       P000516_A_1-TAITTOPUOMI_FEM-1.409        0.0579732          5.69207          148.482       NO       
       P000516_A_1-TAITTOPUOMI_FEM-1.410       0.00490109          10.1158           102.93       NO       
       P000516_A_1-TAITTOPUOMI_FEM-1.414        0.0116268          6.69155          143.657       NO       
       P000516_A_1-TAITTOPUOMI_FEM-1.415       0.00988426          25.0269           129.54       NO       
       P000516_A_1-TAITTOPUOMI_FEM-1.417      5.06865E-06          1.55417          176.788       NO       
       P000516_A_1-TAITTOPUOMI_FEM-1.418        0.0238995          3.39488          95.5403       NO       
       P000516_A_1-TAITTOPUOMI_FEM-1.419        0.0497833          3.18957          101.556       NO       
       P000516_A_1-TAITTOPUOMI_FEM-1.420        0.0600313          3.73635          91.4763       NO       
       P000516_A_1-TAITTOPUOMI_FEM-1.421         0.109797           4.9817          91.2327       NO       
       P000516_A_1-TAITTOPUOMI_FEM-1.422       0.00309856          28.6955            112.5       NO       
       P000516_A_1-TAITTOPUOMI_FEM-1.423      5.87352E-06          2.40632          176.023       NO       
       P000516_A_1-TAITTOPUOMI_FEM-1.424        0.0580872           3.2749          91.4981       NO       
       P000516_A_1-TAITTOPUOMI_FEM-1.425        0.0387415          3.42789              90.       NO       
       P000516_A_1-TAITTOPUOMI_FEM-1.426      1.23336E-05          1.50673          139.743       NO       
       P000516_A_1-TAITTOPUOMI_FEM-1.427        0.0439674          2.75797          104.153       NO       
       P000516_A_1-TAITTOPUOMI_FEM-1.428      9.03415E-05         0.853761          148.623       NO       
       P000516_A_1-TAITTOPUOMI_FEM-1.429      9.03415E-05          9.67192          159.496       NO       
       P000516_A_1-TAITTOPUOMI_FEM-1.430       0.00309856          28.6955            112.5       NO       
       P000516_A_1-TAITTOPUOMI_FEM-1.431        0.0560829          3.35961          90.3885       NO       
       P000516_A_1-TAITTOPUOMI_FEM-1.432      1.65398E-05          3.21147          172.584       NO       
       P000516_A_1-TAITTOPUOMI_FEM-1.433       0.00309856          28.6955            112.5       NO       
       P000516_A_1-TAITTOPUOMI_FEM-1.434      7.30854E-06          2.35244          175.011       NO       
       P000516_A_1-TAITTOPUOMI_FEM-1.435      0.000570875          10.4378           102.09       NO       
       P000516_A_1-TAITTOPUOMI_FEM-1.436       0.00482551          16.3249          147.302       NO       
       P000516_A_1-TAITTOPUOMI_FEM-1.437      0.000570875           11.859          101.168       NO       
       P000516_A_1-TAITTOPUOMI_FEM-1.438      7.42852E-06           2.3433          174.902       NO       
       P000516_A_1-TAITTOPUOMI_FEM-1.439        0.0953805          6.02495          90.5384       NO       
       P000516_A_1-TAITTOPUOMI_FEM-1.440        0.0953805          4.49185          91.6592       NO       
       P000516_A_1-TAITTOPUOMI_FEM-1.441        0.0971225          5.10504           104.25       NO       
       P000516_A_1-TAITTOPUOMI_FEM-1.442         0.038224          5.10505          105.964       NO       
       P000516_A_1-TAITTOPUOMI_FEM-1.443        0.0389037          4.52841          96.3212       NO       
       P000516_A_1-TAITTOPUOMI_FEM-1.444        0.0900841          4.92352          109.336       NO       
       P000516_A_1-TAITTOPUOMI_FEM-1.445      7.70311E-06          2.39038          174.922       NO       
       P000516_A_1-TAITTOPUOMI_FEM-1.446         0.105119          5.09766          96.3212       NO       
       P000516_A_1-TAITTOPUOMI_FEM-1.447        0.0971226          5.10504           104.25       NO       
       P000516_A_1-TAITTOPUOMI_FEM-1.448        0.0153071          5.10504           107.14       NO       
       P000516_A_1-TAITTOPUOMI_FEM-1.449      7.39137E-06          2.34278          175.019       NO       
       P000516_A_1-TAITTOPUOMI_FEM-1.450        0.0529544          3.34983          90.9316       NO       
       P000516_A_1-TAITTOPUOMI_FEM-1.451      1.82315E-05          3.41501          175.152       NO       
       P000516_A_1-TAITTOPUOMI_FEM-1.452        0.0467108          3.92953          104.361       NO       
       P000516_A_1-TAITTOPUOMI_FEM-1.453       3.9765E-07          1.30157           178.02       NO       
       P000516_A_1-TAITTOPUOMI_FEM-1.454         0.106928          4.98153          91.1062       NO       
       P000516_A_1-TAITTOPUOMI_FEM-1.455        0.0392008          4.98604              90.       NO       
       P000516_A_1-TAITTOPUOMI_FEM-1.456         0.107423          4.99721           91.114       NO       
       P000516_A_1-TAITTOPUOMI_FEM-1.457        0.0392008          4.98604              90.       NO       
       P000516_A_1-TAITTOPUOMI_FEM-1.458        0.0163294          4.98931          93.8813       NO       
       P000516_A_1-TAITTOPUOMI_FEM-1.459         0.106928          4.98931          91.1079       NO       
       P000516_A_1-TAITTOPUOMI_FEM-1.460      4.03066E-06          2.34716          176.579       NO       
       P000516_A_1-TAITTOPUOMI_FEM-1.461      4.03066E-06          2.35939          176.611       NO       
       P000516_A_1-TAITTOPUOMI_FEM-1.462        0.0593128          3.42942          91.6181       NO       
       P000516_A_1-TAITTOPUOMI_FEM-1.463        0.0540873          3.39895          100.095       NO       
       P000516_A_1-TAITTOPUOMI_FEM-1.464        0.0385949          3.41191              90.       NO       
       P000516_A_1-TAITTOPUOMI_FEM-1.465        0.0580822          3.43651          91.6227       NO       
       P000516_A_1-TAITTOPUOMI_FEM-1.466         0.107423          4.98931          91.1201       NO       
       P000516_A_1-TAITTOPUOMI_FEM-1.467       4.1825E-06          2.37161          176.553       NO       
       P000516_A_1-TAITTOPUOMI_FEM-1.468      7.40514E-06          2.25866          174.869       NO       
       P000516_A_1-TAITTOPUOMI_FEM-1.469         0.097501          5.11253          104.231       NO       
       P000516_A_1-TAITTOPUOMI_FEM-1.470      7.39137E-06          2.35932          175.038       NO       
       P000516_A_1-TAITTOPUOMI_FEM-1.471        0.0389037          5.11942          97.1161       NO       
       P000516_A_1-TAITTOPUOMI_FEM-1.472      4.03066E-06          2.35939          176.611       NO       
       P000516_A_1-TAITTOPUOMI_FEM-1.473      4.03066E-06          2.34716          176.579       NO       
       P000516_A_1-TAITTOPUOMI_FEM-1.474        0.0590535          3.43788          91.6311       NO       
       P000516_A_1-TAITTOPUOMI_FEM-1.475        0.0502124          3.42942          91.8113       NO       
       P000516_A_1-TAITTOPUOMI_FEM-1.476      4.03066E-06          2.34715          176.579       NO       
       P000516_A_1-TAITTOPUOMI_FEM-1.477        0.0502124          3.43884          91.8162       NO       
       P000516_A_1-TAITTOPUOMI_FEM-1.478       0.00219319          3.69246          157.972       NO       
       P000516_A_1-TAITTOPUOMI_FEM-1.479         0.038224          2.35935          110.474       NO       
       P000516_A_1-TAITTOPUOMI_FEM-1.480       7.9748E-05          3.04059          175.594       NO       
       P000516_A_1-TAITTOPUOMI_FEM-1.481       2.4486E-06          1.27787          175.854       NO       
       P000516_A_1-TAITTOPUOMI_FEM-1.482       0.00700949          20.2938          124.167       NO       
       P000516_A_1-TAITTOPUOMI_FEM-1.483      1.87733E-07          1.17005          166.768       NO       
       P000516_A_1-TAITTOPUOMI_FEM-1.484      1.75113E-07          1.51168          166.889       NO       
       P000516_A_1-TAITTOPUOMI_FEM-1.485        0.0387415          2.48955              90.       NO       
       P000516_A_1-TAITTOPUOMI_FEM-1.486        0.0137426          4.97277          104.597       NO       
       P000516_A_1-TAITTOPUOMI_FEM-1.487        0.0945351          5.01316          104.173       NO       
       P000516_A_1-TAITTOPUOMI_FEM-1.488        0.0174878          4.56032          111.881       NO       
       P000516_A_1-TAITTOPUOMI_FEM-1.489        0.0995086          5.10399           103.88       NO       
       P000516_A_1-TAITTOPUOMI_FEM-1.490      7.91981E-06          2.50014          175.159       NO       
       P000516_A_1-TAITTOPUOMI_FEM-1.491         0.108428          5.21313           96.387       NO       
       P000516_A_1-TAITTOPUOMI_FEM-1.492      7.60289E-06          2.37603          174.975       NO       
       P000516_A_1-TAITTOPUOMI_FEM-1.493      4.26797E-06          2.39389          176.381       NO       
       P000516_A_1-TAITTOPUOMI_FEM-1.494         0.109797          5.09285          91.1599       NO       
       P000516_A_1-TAITTOPUOMI_FEM-1.495        0.0163294          4.98931          93.8813       NO       
       P000516_A_1-TAITTOPUOMI_FEM-1.496      5.62697E-06          2.45423          176.455       NO       
       P000516_A_1-TAITTOPUOMI_FEM-1.497        0.0502124          3.42942          91.8113       NO       
       P000516_A_1-TAITTOPUOMI_FEM-1.498      4.03066E-06           2.3594          176.611       NO       
       P000516_A_1-TAITTOPUOMI_FEM-1.499        0.0387415          3.42789              90.       NO       
       P000516_A_1-TAITTOPUOMI_FEM-1.500        0.0502124          3.43885          91.8162       NO       
       P000516_A_1-TAITTOPUOMI_FEM-1.501        0.0540872          3.39895          100.095       NO       
       P000516_A_1-TAITTOPUOMI_FEM-1.502        0.0543338          3.39063          100.103       NO       
       P000516_A_1-TAITTOPUOMI_FEM-1.503        0.0203283          7.24704          107.687       NO       
       P000516_A_1-TAITTOPUOMI_FEM-1.504        0.0558308          3.59298          97.0801       NO       
       P000516_A_1-TAITTOPUOMI_FEM-1.505      1.01788E-05          2.44617          174.837       NO       
       P000516_A_1-TAITTOPUOMI_FEM-1.506        0.0145215          5.34306           94.049       NO       
       P000516_A_1-TAITTOPUOMI_FEM-1.507      7.39137E-06          2.34278          175.019       NO       
       P000516_A_1-TAITTOPUOMI_FEM-1.508      7.39137E-06          2.35932          175.038       NO       
       P000516_A_1-TAITTOPUOMI_FEM-1.509      7.38538E-06          2.44504          174.803       NO       
       P000516_A_1-TAITTOPUOMI_FEM-1.510        0.0495538          3.41515          110.494       NO       
       P000516_A_1-TAITTOPUOMI_FEM-1.511      4.20025E-06          2.34094          176.537       NO       
       P000516_A_1-TAITTOPUOMI_FEM-1.512        0.0544238          3.54194          100.384       NO       
       P000516_A_1-TAITTOPUOMI_FEM-1.513        0.0501244          3.44398          91.8214       NO       
       P000516_A_1-TAITTOPUOMI_FEM-1.514        0.0495538          3.49013          107.939       NO       
       P000516_A_1-TAITTOPUOMI_FEM-1.515        0.0607929          3.44578          91.6225       NO       
       P000516_A_1-TAITTOPUOMI_FEM-1.516         0.106928          4.98931          91.1079       NO       
       P000516_A_1-TAITTOPUOMI_FEM-1.517       0.00219319          1.76077          176.513       NO       
       P000516_A_1-TAITTOPUOMI_FEM-1.518      0.000107907          1.34214          170.652       NO       
       P000516_A_1-TAITTOPUOMI_FEM-1.520        0.0459407          2.38327          91.1566       NO       
       P000516_A_1-TAITTOPUOMI_FEM-1.521       0.00482551          16.3249          147.302       NO       
       P000516_A_1-TAITTOPUOMI_FEM-1.522      6.90747E-06          0.68662          162.934       NO       
       P000516_A_1-TAITTOPUOMI_FEM-1.523      3.84098E-05         0.950778          148.508       NO       
       P000516_A_1-TAITTOPUOMI_FEM-1.524       0.00309856          28.6955            112.5       NO       
       P000516_A_1-TAITTOPUOMI_FEM-1.525        0.0185964          4.96604          93.6468       NO       
       P000516_A_1-TAITTOPUOMI_FEM-1.526      7.68675E-06          2.46963          175.108       NO       
       P000516_A_1-TAITTOPUOMI_FEM-1.527       0.00309856          1.13261          141.161       NO       
       P000516_A_1-TAITTOPUOMI_FEM-1.528        0.0392008          4.98931              90.       NO       
       P000516_A_1-TAITTOPUOMI_FEM-1.529        0.0502124          3.43884          91.8162       NO       
       P000516_A_1-TAITTOPUOMI_FEM-1.530        0.0392008          4.98931              90.       NO       
       P000516_A_1-TAITTOPUOMI_FEM-1.531        0.0392008          4.98604              90.       NO       
       P000516_A_1-TAITTOPUOMI_FEM-1.532        0.0392008          4.39374          92.3524       NO       
       P000516_A_1-TAITTOPUOMI_FEM-1.533       1.1563E-06          1.87616          161.535       NO       
       P000516_A_1-TAITTOPUOMI_FEM-1.534       0.00482551          16.3249          147.302       NO       
       P000516_A_1-TAITTOPUOMI_FEM-1.535       0.00482551          16.3249          147.302       NO       
       P000516_A_1-TAITTOPUOMI_FEM-1.536        0.0197316          16.3722          147.302       NO       
       P000516_A_1-TAITTOPUOMI_FEM-1.537      4.17927E-07          1.69093          123.168       NO       
       P000516_A_1-TAITTOPUOMI_FEM-1.538       0.00415677           9.4432          108.514       NO       
       P000516_A_1-TAITTOPUOMI_FEM-1.539         0.038224          5.13402          105.949       NO       
       P000516_A_1-TAITTOPUOMI_FEM-1.540       7.3862E-06          2.44218          176.476       NO       
       P000516_A_1-TAITTOPUOMI_FEM-1.541        0.0165768          13.1296          153.741       NO       
       P000516_A_1-TAITTOPUOMI_FEM-1.542      1.23091E-06            1.621          164.367       NO       
       P000516_A_1-TAITTOPUOMI_FEM-1.543        0.0585694          3.58876           97.477       NO       
       P000516_A_1-TAITTOPUOMI_FEM-1.544       3.9988E-07          2.61939          146.617       NO       
       P000516_A_1-TAITTOPUOMI_FEM-1.545       3.9988E-07          1.49645          119.392       NO       
       P000516_A_1-TAITTOPUOMI_FEM-1.546        0.0102539          5.76057          105.033       NO       
       P000516_A_1-TAITTOPUOMI_FEM-1.547         0.107348          5.31699           96.619       NO       
       P000516_A_1-TAITTOPUOMI_FEM-1.548       0.00309856          28.6751          112.483       NO       
       P000516_A_1-TAITTOPUOMI_FEM-1.549        0.0943095          4.93347          103.776       NO       
       P000516_A_1-TAITTOPUOMI_FEM-1.550        0.0394653          3.65518          98.9204       NO       
       P000516_A_1-TAITTOPUOMI_FEM-1.551      3.04016E-06          2.30599          176.427       NO       
       P000516_A_1-TAITTOPUOMI_FEM-1.552         0.102197          5.21565          96.6791       NO       
       P000516_A_1-TAITTOPUOMI_FEM-1.553        0.0137426          4.97278          104.597       NO       
       P000516_A_1-TAITTOPUOMI_FEM-1.554         0.102079          5.10598          96.4915       NO       
       P000516_A_1-TAITTOPUOMI_FEM-1.555        0.0174878           5.0952          106.875       NO       
       P000516_A_1-TAITTOPUOMI_FEM-1.556        0.0174878          4.56033          111.881       NO       
       P000516_A_1-TAITTOPUOMI_FEM-1.557        0.0995085          5.10398           103.88       NO       
       P000516_A_1-TAITTOPUOMI_FEM-1.558         0.108428          5.21313           96.387       NO       
       P000516_A_1-TAITTOPUOMI_FEM-1.559      5.41154E-06          2.35936           176.33       NO       
       P000516_A_1-TAITTOPUOMI_FEM-1.560        0.0523502          3.68352          96.6735       NO       
       P000516_A_1-TAITTOPUOMI_FEM-1.561        0.0541282          3.42942          91.6819       NO       
       P000516_A_1-TAITTOPUOMI_FEM-1.562      5.48168E-06          2.35711          176.571       NO       
       P000516_A_1-TAITTOPUOMI_FEM-1.563        0.0387415          3.42789              90.       NO       
       P000516_A_1-TAITTOPUOMI_FEM-1.564        0.0590006          3.42942          97.0948       NO       
       P000516_A_1-TAITTOPUOMI_FEM-1.565      3.51065E-06          2.26962          176.727       NO       
       P000516_A_1-TAITTOPUOMI_FEM-1.566        0.0577752          3.31393          96.6735       NO       
       P000516_A_1-TAITTOPUOMI_FEM-1.567       3.5459E-06          2.35709          176.571       NO       
       P000516_A_1-TAITTOPUOMI_FEM-1.568        0.0387415          3.42789              90.       NO       
       P000516_A_1-TAITTOPUOMI_FEM-1.569        0.0541915          3.42942          96.4321       NO       
       P000516_A_1-TAITTOPUOMI_FEM-1.570        0.0480654          3.42942          91.8699       NO       
       P000516_A_1-TAITTOPUOMI_FEM-1.571        0.0392008          4.98604              90.       NO       
       P000516_A_1-TAITTOPUOMI_FEM-1.572        0.0580821          3.43651          91.6227       NO       
       P000516_A_1-TAITTOPUOMI_FEM-1.573        0.0379373          3.42942          99.1611       NO       
       P000516_A_1-TAITTOPUOMI_FEM-1.574      0.000107907         0.790028          163.105       NO       
       P000516_A_1-TAITTOPUOMI_FEM-1.575        0.0431302          4.39541          91.7973       NO       
       P000516_A_1-TAITTOPUOMI_FEM-1.576        0.0267844          4.13683          110.338       NO       
       P000516_A_1-TAITTOPUOMI_FEM-1.578        0.0591045          5.72416          101.606       NO       
       P000516_A_1-TAITTOPUOMI_FEM-1.579         0.107313          4.93264          91.2067       NO       
       P000516_A_1-TAITTOPUOMI_FEM-1.580      8.54125E-06          2.44537           174.61       NO       
       P000516_A_1-TAITTOPUOMI_FEM-1.581      1.86911E-06           1.1954          177.785       NO       
       P000516_A_1-TAITTOPUOMI_FEM-1.582       0.00978159          5.44021          96.1751       NO       
       P000516_A_1-TAITTOPUOMI_FEM-1.583        0.0157347          4.98013          104.153       NO       
       P000516_A_1-TAITTOPUOMI_FEM-1.584      1.65398E-05          2.10349          176.508       NO       
       P000516_A_1-TAITTOPUOMI_FEM-1.585        0.0479507           2.6945          104.807       NO       
       P000516_A_1-TAITTOPUOMI_FEM-1.586       0.00309856          28.6955            112.5       NO       
       P000516_A_1-TAITTOPUOMI_FEM-1.587      8.54125E-06          2.42749           175.06       NO       
       P000516_A_1-TAITTOPUOMI_FEM-1.588         0.107313          5.05681          91.0373       NO       
       P000516_A_1-TAITTOPUOMI_FEM-1.589      5.17306E-07          2.15134          126.051       NO       
       P000516_A_1-TAITTOPUOMI_FEM-1.590       0.00493175          43.6508           92.006       NO       
       P000516_A_1-TAITTOPUOMI_FEM-1.591        0.0189675          4.77548          93.5122       NO       
       P000516_A_1-TAITTOPUOMI_FEM-1.592      6.57824E-06          2.27395          174.957       NO       
       P000516_A_1-TAITTOPUOMI_FEM-1.593      1.35971E-06          1.10036          153.188       NO       
       P000516_A_1-TAITTOPUOMI_FEM-1.594      1.35971E-06          4.21814          143.873       NO       
       P000516_A_1-TAITTOPUOMI_FEM-1.595        1.905E-06          1.07524           160.91       NO       
       P000516_A_1-TAITTOPUOMI_FEM-1.596       0.00783961          43.6832          92.0265       NO       
       P000516_A_1-TAITTOPUOMI_FEM-1.597        0.0571663          3.08338          91.8438       NO       
       P000516_A_1-TAITTOPUOMI_FEM-1.598        0.0529544           3.3476          92.4433       NO       
       P000516_A_1-TAITTOPUOMI_FEM-1.599        0.0571663          3.34908          91.1368       NO       
       P000516_A_1-TAITTOPUOMI_FEM-1.600        0.0529895          3.37909          91.0881       NO       
       P000516_A_1-TAITTOPUOMI_FEM-1.601         0.060043          3.32581          92.1825       NO       
       P000516_A_1-TAITTOPUOMI_FEM-1.602        0.0532621          3.29665          91.0297       NO       
       P000516_A_1-TAITTOPUOMI_FEM-1.603        0.0529895           3.3171          92.2942       NO       
       P000516_A_1-TAITTOPUOMI_FEM-1.604      7.70773E-07          1.56349          177.645       NO       
       P000516_A_1-TAITTOPUOMI_FEM-1.605        0.0642281          3.11574          91.8166       NO       
       P000516_A_1-TAITTOPUOMI_FEM-1.606      7.70773E-07          1.50889          177.839       NO       
       P000516_A_1-TAITTOPUOMI_FEM-1.607       0.00493175          43.6784          92.0079       NO       
       P000516_A_1-TAITTOPUOMI_FEM-1.608      1.56303E-05          3.20055           175.41       NO       
       P000516_A_1-TAITTOPUOMI_FEM-1.609        0.0578166          3.38372          92.4137       NO       
       P000516_A_1-TAITTOPUOMI_FEM-1.610      1.56303E-05          3.37357          175.024       NO       
       P000516_A_1-TAITTOPUOMI_FEM-1.611       0.00493175          43.6508           92.006       NO       
       P000516_A_1-TAITTOPUOMI_FEM-1.612       0.00493175          43.6784          92.0079       NO       
       P000516_A_1-TAITTOPUOMI_FEM-1.613       3.9765E-07          1.30185          178.152       NO       
       P000516_A_1-TAITTOPUOMI_FEM-1.614        0.0463225          3.53505          109.636       NO       
       P000516_A_1-TAITTOPUOMI_FEM-1.615        0.0394653          3.89871          101.703       NO       
       P000516_A_1-TAITTOPUOMI_FEM-1.616        0.0387415          2.35935              90.       NO       
       P000516_A_1-TAITTOPUOMI_FEM-1.617      2.97003E-05          2.72804          171.123       NO       
       P000516_A_1-TAITTOPUOMI_FEM-1.618        0.0595868          3.84322          91.3454       NO       
       P000516_A_1-TAITTOPUOMI_FEM-1.619      5.21307E-06          1.76099          174.258       NO       
       P000516_A_1-TAITTOPUOMI_FEM-1.620      5.87352E-06          2.31717          176.417       NO       
       P000516_A_1-TAITTOPUOMI_FEM-1.621        0.0869568          4.01797          98.6476       NO       
       P000516_A_1-TAITTOPUOMI_FEM-1.622        5.848E-07          1.43601          177.944       NO       
       P000516_A_1-TAITTOPUOMI_FEM-1.623        0.0559187          3.33611          92.3596       NO       
       P000516_A_1-TAITTOPUOMI_FEM-1.624      1.84921E-06          2.09633          176.854       NO       
       P000516_A_1-TAITTOPUOMI_FEM-1.625      3.34992E-06          4.65605          119.751       NO       
       P000516_A_1-TAITTOPUOMI_FEM-1.626        0.0193231           43.621          91.9405       NO       
       P000516_A_1-TAITTOPUOMI_FEM-1.627      9.00479E-06          2.57909          175.583       NO       
       P000516_A_1-TAITTOPUOMI_FEM-1.628       0.00482551          16.3249          147.302       NO       
       P000516_A_1-TAITTOPUOMI_FEM-1.629        0.0540435           3.5662          105.157       NO       
       P000516_A_1-TAITTOPUOMI_FEM-1.630        0.0163294           5.0166          93.9026       NO       
       P000516_A_1-TAITTOPUOMI_FEM-1.631       0.00493172          43.6507          92.0061       NO       
       P000516_A_1-TAITTOPUOMI_FEM-1.632        0.0189675          4.80091           93.742       NO       
       P000516_A_1-TAITTOPUOMI_FEM-1.633        0.0392008          2.35241          175.014       NO       
       P000516_A_1-TAITTOPUOMI_FEM-1.634      5.17306E-07          1.66876          151.281       NO       
       P000516_A_1-TAITTOPUOMI_FEM-1.635         0.106797           4.9254          91.1159       NO       
       P000516_A_1-TAITTOPUOMI_FEM-1.636      3.14912E-06          2.21019          176.371       NO       
       P000516_A_1-TAITTOPUOMI_FEM-1.637       0.00493172          1.73903          135.632       NO       
       P000516_A_1-TAITTOPUOMI_FEM-1.638       0.00178734          30.1935          129.585       NO       
       P000516_A_1-TAITTOPUOMI_FEM-1.639       0.00493172          43.6507          92.0061       NO       
       P000516_A_1-TAITTOPUOMI_FEM-1.640       0.00493172          43.6783           92.008       NO       
       P000516_A_1-TAITTOPUOMI_FEM-1.641      9.00479E-06          2.59832          175.967       NO       
       P000516_A_1-TAITTOPUOMI_FEM-1.642         0.016029          28.7488          112.555       NO       
       P000516_A_1-TAITTOPUOMI_FEM-1.643        0.0609633          3.35831          90.9166       NO       
       P000516_A_1-TAITTOPUOMI_FEM-1.644        0.0141187           5.2004          94.2896       NO       
       P000516_A_1-TAITTOPUOMI_FEM-1.645       0.00309856          28.6751          112.483       NO       
       P000516_A_1-TAITTOPUOMI_FEM-1.646       0.00482551         0.977731          163.647       NO       
       P000516_A_1-TAITTOPUOMI_FEM-1.647        0.0141187          5.23274          94.0132       NO       
       P000516_A_1-TAITTOPUOMI_FEM-1.648       0.00309856          28.6751          112.483       NO       
       P000516_A_1-TAITTOPUOMI_FEM-1.649        0.0580972          4.74291           111.27       NO       
       P000516_A_1-TAITTOPUOMI_FEM-1.650       0.00309856          28.7195           112.49       NO       
       P000516_A_1-TAITTOPUOMI_FEM-1.651       0.00482551          16.3249          147.302       NO       
       P000516_A_1-TAITTOPUOMI_FEM-1.652       0.00309856          28.6751          112.483       NO       
       P000516_A_1-TAITTOPUOMI_FEM-1.653       0.00482551         0.977731          163.647       NO       
       P000516_A_1-TAITTOPUOMI_FEM-1.654       0.00309856          28.6751          112.483       NO       
       P000516_A_1-TAITTOPUOMI_FEM-1.655       0.00482551          16.3249          147.302       NO       
       P000516_A_1-TAITTOPUOMI_FEM-1.656         0.106928          4.98153          91.1062       NO       
       P000516_A_1-TAITTOPUOMI_FEM-1.657       0.00309856          28.7195           112.49       NO       
       P000516_A_1-TAITTOPUOMI_FEM-1.658      3.21932E-05          4.73602          173.782       NO       
       P000516_A_1-TAITTOPUOMI_FEM-1.659      7.60289E-06          2.35938          175.011       NO       
       P000516_A_1-TAITTOPUOMI_FEM-1.660      1.65053E-06          2.50398          150.815       NO       
       P000516_A_1-TAITTOPUOMI_FEM-1.661        0.0392008          4.98604              90.       NO       
       P000516_A_1-TAITTOPUOMI_FEM-1.662       0.00309856          28.7195           112.49       NO       
       P000516_A_1-TAITTOPUOMI_FEM-1.663       0.00309856          1.66878            112.5       NO       
       P000516_A_1-TAITTOPUOMI_FEM-1.664       0.00309856          28.7195           112.49       NO       
       P000516_A_1-TAITTOPUOMI_FEM-1.665      7.08219E-06          8.62749          136.741       NO       
       P000516_A_1-TAITTOPUOMI_FEM-1.666       0.00482551         0.977731          163.647       NO       
       P000516_A_1-TAITTOPUOMI_FEM-1.667      4.28057E-06          7.48135           163.01       NO       
       P000516_A_1-TAITTOPUOMI_FEM-1.668        0.0509238          3.56254          103.167       NO       
       P000516_A_1-TAITTOPUOMI_FEM-1.669      8.58361E-06          2.42767          176.449       NO       
       P000516_A_1-TAITTOPUOMI_FEM-1.670       0.00482551          16.3534           147.35       NO       
       P000516_A_1-TAITTOPUOMI_FEM-1.671        0.0216877          4.57916          110.789       NO       
       P000516_A_1-TAITTOPUOMI_FEM-1.672       0.00309856          28.6751          112.483       NO       
       P000516_A_1-TAITTOPUOMI_FEM-1.673       0.00364976          28.6889          112.504       NO       
       P000516_A_1-TAITTOPUOMI_FEM-1.674      4.52982E-07           1.8761          165.538       NO       
       P000516_A_1-TAITTOPUOMI_FEM-1.675       0.00309856          28.6955            112.5       NO       
       P000516_A_1-TAITTOPUOMI_FEM-1.676       0.00493175          43.6784          92.0079       NO       
       P000516_A_1-TAITTOPUOMI_FEM-1.677       0.00971624          28.7195          112.533       NO       
       P000516_A_1-TAITTOPUOMI_FEM-1.678       0.00309856          28.6751          112.483       NO       
       P000516_A_1-TAITTOPUOMI_FEM-1.679       0.00309856          28.6955            112.5       NO       
       P000516_A_1-TAITTOPUOMI_FEM-1.680        0.0459407          4.64978          90.4277       NO       
       P000516_A_1-TAITTOPUOMI_FEM-1.681      4.17927E-07           2.1799          141.124       NO       
       P000516_A_1-TAITTOPUOMI_FEM-1.682       0.00309856          1.13261          141.161       NO       
       P000516_A_1-TAITTOPUOMI_FEM-1.683      7.91981E-06          2.50013          175.159       NO       
       P000516_A_1-TAITTOPUOMI_FEM-1.684       0.00493172          43.6783           92.008       NO       
       P000516_A_1-TAITTOPUOMI_FEM-1.685       0.00493172          43.6783           92.008       NO       
       P000516_A_1-TAITTOPUOMI_FEM-1.686       0.00482551          1.87613           147.35       NO       
       P000516_A_1-TAITTOPUOMI_FEM-1.687      7.51377E-06          1.42999          174.091       NO       
       P000516_A_1-TAITTOPUOMI_FEM-1.688      7.42852E-06          2.35938          175.047       NO       
       P000516_A_1-TAITTOPUOMI_FEM-1.689       0.00309856          28.6955            112.5       NO       
       P000516_A_1-TAITTOPUOMI_FEM-1.690       0.00309856          1.13261          141.161       NO       
       P000516_A_1-TAITTOPUOMI_FEM-1.691       0.00309856          28.6955            112.5       NO       
       P000516_A_1-TAITTOPUOMI_FEM-1.692       0.00482551          16.3534           147.35       NO       
       P000516_A_1-TAITTOPUOMI_FEM-1.693      9.23296E-07         0.995526          136.953       NO       
       P000516_A_1-TAITTOPUOMI_FEM-1.694       0.00309856          28.6751          112.483       NO       
       P000516_A_1-TAITTOPUOMI_FEM-1.695       0.00309856          28.6955            112.5       NO       
       P000516_A_1-TAITTOPUOMI_FEM-1.696       0.00309856          1.13261          141.161       NO       
       P000516_A_1-TAITTOPUOMI_FEM-1.697       0.00482551          16.3534           147.35       NO       
       P000516_A_1-TAITTOPUOMI_FEM-1.698        0.0353167          3.99434          92.7115       NO       
       P000516_A_1-TAITTOPUOMI_FEM-1.699       0.00309856          1.66878            112.5       NO       
       P000516_A_1-TAITTOPUOMI_FEM-1.700        0.0353167          3.87417          92.3236       NO       
       P000516_A_1-TAITTOPUOMI_FEM-1.701        5.848E-07          1.39588          177.836       NO       
       P000516_A_1-TAITTOPUOMI_FEM-1.702        0.0488483          3.47244          106.773       NO       
       P000516_A_1-TAITTOPUOMI_FEM-1.703       0.00493175          2.48581          92.0079       NO       
       P000516_A_1-TAITTOPUOMI_FEM-1.704       0.00309856          1.66878            112.5       NO       
       P000516_A_1-TAITTOPUOMI_FEM-1.705       0.00482551          16.3249          147.302       NO       
       P000516_A_1-TAITTOPUOMI_FEM-1.706       0.00309856          1.13261          141.161       NO       
       P000516_A_1-TAITTOPUOMI_FEM-1.707       0.00482551          1.87613           147.35       NO       
       P000516_A_1-TAITTOPUOMI_FEM-1.708      6.13235E-06          2.50147          175.765       NO       
       P000516_A_1-TAITTOPUOMI_FEM-1.709        0.0559842          3.42942          96.6572       NO       
       P000516_A_1-TAITTOPUOMI_FEM-1.710       0.00493175          1.73904          135.632       NO       
       P000516_A_1-TAITTOPUOMI_FEM-1.711       0.00309856          28.6751          112.483       NO       
       P000516_A_1-TAITTOPUOMI_FEM-1.712      8.89285E-06          10.4303          150.424       NO       
       P000516_A_1-TAITTOPUOMI_FEM-1.713        0.0458786          3.53433           108.73       NO       
       P000516_A_1-TAITTOPUOMI_FEM-1.714       0.00309856          1.13261          141.161       NO       
       P000516_A_1-TAITTOPUOMI_FEM-1.715        0.0480256          3.57983          91.9559       NO       
       P000516_A_1-TAITTOPUOMI_FEM-1.716        0.0166385          4.96226          93.8482       NO       
       P000516_A_1-TAITTOPUOMI_FEM-1.717       0.00309856          28.6751          112.483       NO       
       P000516_A_1-TAITTOPUOMI_FEM-1.718      8.33329E-06           5.4546          174.986       NO       
       P000516_A_1-TAITTOPUOMI_FEM-1.719      8.58361E-06          2.13004          170.412       NO       
       P000516_A_1-TAITTOPUOMI_FEM-1.720       0.00482551         0.977731          163.647       NO       
       P000516_A_1-TAITTOPUOMI_FEM-1.721        0.0166385          4.98931          93.8692       NO       
       P000516_A_1-TAITTOPUOMI_FEM-1.722        0.0562319          3.42101          96.6735       NO       
       P000516_A_1-TAITTOPUOMI_FEM-1.723       0.00482551          16.3534           147.35       NO       
       P000516_A_1-TAITTOPUOMI_FEM-1.724       0.00309856          28.6751          112.483       NO       
       P000516_A_1-TAITTOPUOMI_FEM-1.725       0.00309856          1.66879            112.5       NO       
       P000516_A_1-TAITTOPUOMI_FEM-1.726       0.00309856          28.7195           112.49       NO       
       P000516_A_1-TAITTOPUOMI_FEM-1.727       0.00309856          28.6751          112.483       NO       
       P000516_A_1-TAITTOPUOMI_FEM-1.728        0.0392008          4.98604              90.       NO       
       P000516_A_1-TAITTOPUOMI_FEM-1.729       0.00482551          16.3534           147.35       NO       
       P000516_A_1-TAITTOPUOMI_FEM-1.730        0.0392008          4.98604              90.       NO       
       P000516_A_1-TAITTOPUOMI_FEM-1.731       0.00309856          28.6955            112.5       NO       
       P000516_A_1-TAITTOPUOMI_FEM-1.732       0.00309856          1.66879            112.5       NO       
       P000516_A_1-TAITTOPUOMI_FEM-1.733       0.00309856          28.7195           112.49       NO       
       P000516_A_1-TAITTOPUOMI_FEM-1.734       0.00309856          28.6751          112.483       NO       
       P000516_A_1-TAITTOPUOMI_FEM-1.735       0.00309856          28.6751          112.483       NO       
       P000516_A_1-TAITTOPUOMI_FEM-1.736       0.00482551          16.3534           147.35       NO       
       P000516_A_1-TAITTOPUOMI_FEM-1.737       0.00309856          28.6955            112.5       NO       
       P000516_A_1-TAITTOPUOMI_FEM-1.738       0.00482551          16.3249          147.302       NO       
       P000516_A_1-TAITTOPUOMI_FEM-1.739       0.00309856          1.66879            112.5       NO       
       P000516_A_1-TAITTOPUOMI_FEM-1.740       0.00309856          28.7195           112.49       NO       
       P000516_A_1-TAITTOPUOMI_FEM-1.741       4.1825E-06          2.37161          176.553       NO       
       P000516_A_1-TAITTOPUOMI_FEM-1.742       0.00309856          28.6751          112.483       NO       
       P000516_A_1-TAITTOPUOMI_FEM-1.743       0.00309856          1.13261          141.161       NO       
       P000516_A_1-TAITTOPUOMI_FEM-1.744       0.00309856          1.13261          141.161       NO       
       P000516_A_1-TAITTOPUOMI_FEM-1.745       0.00309856          28.6751          112.483       NO       
       P000516_A_1-TAITTOPUOMI_FEM-1.746       0.00482551          16.3534           147.35       NO       
       P000516_A_1-TAITTOPUOMI_FEM-1.747       0.00309856          28.6751          112.483       NO       
       P000516_A_1-TAITTOPUOMI_FEM-1.748       0.00309856          28.6955            112.5       NO       
       P000516_A_1-TAITTOPUOMI_FEM-1.749       0.00309856          1.66879            112.5       NO       
       P000516_A_1-TAITTOPUOMI_FEM-1.750        0.0508336          3.48631          103.399       NO       
       P000516_A_1-TAITTOPUOMI_FEM-1.751       0.00309856          28.6751          112.483       NO       
       P000516_A_1-TAITTOPUOMI_FEM-1.752       0.00309856          1.13261          141.161       NO       
       P000516_A_1-TAITTOPUOMI_FEM-1.753       0.00482551          16.3534           147.35       NO       
       P000516_A_1-TAITTOPUOMI_FEM-1.754       0.00309856          28.6751          112.483       NO       
       P000516_A_1-TAITTOPUOMI_FEM-1.755       0.00309856          28.6751          112.483       NO       
       P000516_A_1-TAITTOPUOMI_FEM-1.756       0.00309856          1.66879            112.5       NO       
       P000516_A_1-TAITTOPUOMI_FEM-1.757       0.00309856          1.66878            112.5       NO       
       P000516_A_1-TAITTOPUOMI_FEM-1.758       0.00482551          16.3534           147.35       NO       
       P000516_A_1-TAITTOPUOMI_FEM-1.759       0.00309856          28.6751          112.483       NO       
       P000516_A_1-TAITTOPUOMI_FEM-1.760       0.00309856          1.13261          141.161       NO       
       P000516_A_1-TAITTOPUOMI_FEM-1.761      4.20605E-06           2.3779          176.558       NO       
       P000516_A_1-TAITTOPUOMI_FEM-1.762       1.1651E-05           2.2994          176.379       NO       
       P000516_A_1-TAITTOPUOMI_FEM-1.763       0.00482551          16.3249          147.302       NO       
       P000516_A_1-TAITTOPUOMI_FEM-1.764       0.00309856          28.6955            112.5       NO       
       P000516_A_1-TAITTOPUOMI_FEM-1.765       0.00309856          28.6751          112.483       NO       
       P000516_A_1-TAITTOPUOMI_FEM-1.766        0.0166385          4.96226          93.8482       NO       
       P000516_A_1-TAITTOPUOMI_FEM-1.767       0.00309856          28.7195           112.49       NO       
       P000516_A_1-TAITTOPUOMI_FEM-1.768       0.00309856          1.13261          141.161       NO       
       P000516_A_1-TAITTOPUOMI_FEM-1.769        0.0501869          3.59653            103.2       NO       
       P000516_A_1-TAITTOPUOMI_FEM-1.770       0.00309856          28.6955            112.5       NO       
       P000516_A_1-TAITTOPUOMI_FEM-1.771       0.00309856          28.7195           112.49       NO       
       P000516_A_1-TAITTOPUOMI_FEM-1.772        0.0454754          3.45266          111.595       NO       
       P000516_A_1-TAITTOPUOMI_FEM-1.773        0.0618731          2.80802          110.154       NO       
       P000516_A_1-TAITTOPUOMI_FEM-1.774        0.0389451            3.992          106.947       NO       
       P000516_A_1-TAITTOPUOMI_FEM-1.775       0.00309856          1.66879            112.5       NO       
       P000516_A_1-TAITTOPUOMI_FEM-1.776       0.00482551         0.977731          163.647       NO       
       P000516_A_1-TAITTOPUOMI_FEM-1.777       0.00482551          16.3249          147.302       NO       
       P000516_A_1-TAITTOPUOMI_FEM-1.778       0.00309856          1.13261          141.161       NO       
       P000516_A_1-TAITTOPUOMI_FEM-1.779       0.00482551          16.3534           147.35       NO       
       P000516_A_1-TAITTOPUOMI_FEM-1.780       0.00309856          28.6955            112.5       NO       
       P000516_A_1-TAITTOPUOMI_FEM-1.781       0.00309856          28.6751          112.483       NO       
       P000516_A_1-TAITTOPUOMI_FEM-1.782       0.00309856          28.6751          112.483       NO       
       P000516_A_1-TAITTOPUOMI_FEM-1.783      4.20605E-06          2.35931          176.556       NO       
       P000516_A_1-TAITTOPUOMI_FEM-1.784        0.0392008          2.35935              90.       NO       
       P000516_A_1-TAITTOPUOMI_FEM-1.785      4.76618E-06          5.31188          154.963       NO       
       P000516_A_1-TAITTOPUOMI_FEM-1.786        0.0552278          3.42942           91.739       NO       
       P000516_A_1-TAITTOPUOMI_FEM-1.787         0.046477          3.42942          99.1611       NO       
       P000516_A_1-TAITTOPUOMI_FEM-1.788        0.0346235          3.40201          110.492       NO       
       P000516_A_1-TAITTOPUOMI_FEM-1.789        0.0502124          3.42942          91.8113       NO       
       P000516_A_1-TAITTOPUOMI_FEM-1.790       0.00978159          6.14737          93.5122       NO       
       P000516_A_1-TAITTOPUOMI_FEM-1.791        0.0510233          3.42942          99.1612       NO       
       P000516_A_1-TAITTOPUOMI_FEM-1.792       0.00309856          28.6955            112.5       NO       
       P000516_A_1-TAITTOPUOMI_FEM-1.793       0.00309856          1.13261          141.161       NO       
       P000516_A_1-TAITTOPUOMI_FEM-1.794      1.86911E-06          1.61899          175.783       NO       
       P000516_A_1-TAITTOPUOMI_FEM-1.795        0.0148939          3.34973          115.643       NO       
       P000516_A_1-TAITTOPUOMI_FEM-1.796        0.0449153          3.62817           98.933       NO       
       P000516_A_1-TAITTOPUOMI_FEM-1.797       0.00680412          21.8804          136.317       NO       
       P000516_A_1-TAITTOPUOMI_FEM-1.798        0.0593128          3.42942          91.6181       NO       
       P000516_A_1-TAITTOPUOMI_FEM-1.799       0.00309856          1.13261          141.161       NO       
       P000516_A_1-TAITTOPUOMI_FEM-1.800       0.00493172          43.6507          92.0061       NO       
       P000516_A_1-TAITTOPUOMI_FEM-1.801       0.00309856          28.7195           112.49       NO       
       P000516_A_1-TAITTOPUOMI_FEM-1.802        0.0583452          3.42788          91.6098       NO       
       P000516_A_1-TAITTOPUOMI_FEM-1.803       0.00482551          16.3249          147.302       NO       
       P000516_A_1-TAITTOPUOMI_FEM-1.804       0.00493172          43.6783           92.008       NO       
       P000516_A_1-TAITTOPUOMI_FEM-1.805       0.00493172          1.73903          135.632       NO       
       P000516_A_1-TAITTOPUOMI_FEM-1.806       0.00309856          28.7195           112.49       NO       
       P000516_A_1-TAITTOPUOMI_FEM-1.807       0.00482551         0.977731          163.647       NO       
       P000516_A_1-TAITTOPUOMI_FEM-1.808      0.000288239          13.0211          152.995       NO       
       P000516_A_1-TAITTOPUOMI_FEM-1.809        0.0455334           3.4508          92.0025       NO       
       P000516_A_1-TAITTOPUOMI_FEM-1.810        0.0431176          4.02002          109.649       NO       
       P000516_A_1-TAITTOPUOMI_FEM-1.811       0.00942111           10.601           94.972       NO       
       P000516_A_1-TAITTOPUOMI_FEM-1.812        0.0609217          3.42942          91.5571       NO       
       P000516_A_1-TAITTOPUOMI_FEM-1.813         0.052959          3.42942          99.1612       NO       
       P000516_A_1-TAITTOPUOMI_FEM-1.814       0.00309856          28.7195           112.49       NO       
       P000516_A_1-TAITTOPUOMI_FEM-1.815       0.00309856          28.6955            112.5       NO       
       P000516_A_1-TAITTOPUOMI_FEM-1.816       0.00309856          1.66879            112.5       NO       
       P000516_A_1-TAITTOPUOMI_FEM-1.817       0.00309856          28.6751          112.483       NO       
       P000516_A_1-TAITTOPUOMI_FEM-1.818      1.37462E-05          3.20551          175.444       NO       
       P000516_A_1-TAITTOPUOMI_FEM-1.819       0.00224655           20.277          124.151       NO       
       P000516_A_1-TAITTOPUOMI_FEM-1.820        0.0431176          3.35913          107.287       NO       
       P000516_A_1-TAITTOPUOMI_FEM-1.821      2.92331E-07          1.93248          169.134       NO       
       P000516_A_1-TAITTOPUOMI_FEM-1.822       0.00224655          20.2606          124.127       NO       
       P000516_A_1-TAITTOPUOMI_FEM-1.823      5.41154E-06          2.48957          176.316       NO       
       P000516_A_1-TAITTOPUOMI_FEM-1.824       0.00224655           20.277          124.151       NO       
       P000516_A_1-TAITTOPUOMI_FEM-1.825       0.00551585          20.2811          124.159       NO       
       P000516_A_1-TAITTOPUOMI_FEM-1.826        0.0164711          20.3237          124.177       NO       
       P000516_A_1-TAITTOPUOMI_FEM-1.827       0.00224655          0.83462          144.403       NO       
       P000516_A_1-TAITTOPUOMI_FEM-1.828        0.0600757           3.3838          91.1113       NO       
       P000516_A_1-TAITTOPUOMI_FEM-1.829       0.00224655          0.83462          144.403       NO       
       P000516_A_1-TAITTOPUOMI_FEM-1.830         0.003707          13.1113          153.823       NO       
       P000516_A_1-TAITTOPUOMI_FEM-1.831        0.0552457          3.55523          91.5872       NO       
       P000516_A_1-TAITTOPUOMI_FEM-1.832       0.00224655           20.277          124.151       NO       
       P000516_A_1-TAITTOPUOMI_FEM-1.833       0.00224655          1.18676          124.151       NO       
       P000516_A_1-TAITTOPUOMI_FEM-1.834       0.00224655          20.2605          124.127       NO       
       P000516_A_1-TAITTOPUOMI_FEM-1.835       0.00224655          0.83462          144.403       NO       
       P000516_A_1-TAITTOPUOMI_FEM-1.836       0.00309856          28.6751          112.483       NO       
       P000516_A_1-TAITTOPUOMI_FEM-1.837       0.00224655          20.2606          124.127       NO       
       P000516_A_1-TAITTOPUOMI_FEM-1.838       0.00224655         0.834619          144.403       NO       
       P000516_A_1-TAITTOPUOMI_FEM-1.839      5.93106E-06          2.49859           176.41       NO       
       P000516_A_1-TAITTOPUOMI_FEM-1.840       0.00224655           20.277          124.151       NO       
       P000516_A_1-TAITTOPUOMI_FEM-1.841         0.003707          1.51173          153.823       NO       
       P000516_A_1-TAITTOPUOMI_FEM-1.842        0.0532621          3.38271          92.2989       NO       
       P000516_A_1-TAITTOPUOMI_FEM-1.843       0.00224655          20.2605          124.127       NO       
       P000516_A_1-TAITTOPUOMI_FEM-1.844       0.00224655          20.2606          124.127       NO       
       P000516_A_1-TAITTOPUOMI_FEM-1.845         0.003707          1.51173          153.823       NO       
       P000516_A_1-TAITTOPUOMI_FEM-1.846        0.0884197          5.69169          90.4165       NO       
       P000516_A_1-TAITTOPUOMI_FEM-1.847       0.00224655           20.277          124.151       NO       
       P000516_A_1-TAITTOPUOMI_FEM-1.848       0.00224655          20.2605          124.127       NO       
       P000516_A_1-TAITTOPUOMI_FEM-1.849      1.67723E-07          1.26066          163.627       NO       
       P000516_A_1-TAITTOPUOMI_FEM-1.850       0.00224655         0.834619          144.403       NO       
       P000516_A_1-TAITTOPUOMI_FEM-1.851       0.00224655          0.83462          144.403       NO       
       P000516_A_1-TAITTOPUOMI_FEM-1.852       0.00224655          0.83462          144.403       NO       
       P000516_A_1-TAITTOPUOMI_FEM-1.853       0.00309856          1.13261          141.161       NO       
       P000516_A_1-TAITTOPUOMI_FEM-1.854         0.003707          1.51173          153.823       NO       
       P000516_A_1-TAITTOPUOMI_FEM-1.855       0.00224655          1.18676          124.151       NO       
[...]
      P000516_A_1-TAITTOPUOMI_FEM-1.2318       0.00669502          19.3386          142.337       NO       
      P000516_A_1-TAITTOPUOMI_FEM-1.2322       0.00219245          8.33474          167.496       NO       
      P000516_A_1-TAITTOPUOMI_FEM-1.2323          0.16485          9.56165              90.       NO       
      P000516_A_1-TAITTOPUOMI_FEM-1.2326      0.000131671          13.5437          113.774       NO       
      P000516_A_1-TAITTOPUOMI_FEM-1.2329      0.000723559           8.1783          164.567       NO       
      P000516_A_1-TAITTOPUOMI_FEM-1.2330      0.000693764          19.8651          156.362       NO       
      P000516_A_1-TAITTOPUOMI_FEM-1.2357       0.00246695          23.6936          160.218       NO       
      P000516_A_1-TAITTOPUOMI_FEM-1.2360       0.00151105          11.4009          163.242       NO       
      P000516_A_1-TAITTOPUOMI_FEM-1.2363       0.00846391          26.2704          120.996       NO       
      P000516_A_1-TAITTOPUOMI_FEM-1.2366        0.0523614          3.51742          147.009       NO       
      P000516_A_1-TAITTOPUOMI_FEM-1.2367        0.0150114          8.06289           132.61       NO       
      P000516_A_1-TAITTOPUOMI_FEM-1.2369        0.0155352          16.0778           131.58       NO       
      P000516_A_1-TAITTOPUOMI_FEM-1.2370      0.000814602          5.85065          169.326       NO       
      P000516_A_1-TAITTOPUOMI_FEM-1.2375       0.00370447          4.03798          147.298       NO       
      P000516_A_1-TAITTOPUOMI_FEM-1.2385        0.0125654          18.6991           107.49       NO       
      P000516_A_1-TAITTOPUOMI_FEM-1.2395      0.000711487          9.59891          149.604       NO       
      P000516_A_1-TAITTOPUOMI_FEM-1.2401       0.00139013          20.8763          147.934       NO       
      P000516_A_1-TAITTOPUOMI_FEM-1.2404       0.00159885           9.7285          113.005       NO       
      P000516_A_1-TAITTOPUOMI_FEM-1.2406        0.0121675          4.46342          113.942       NO       
      P000516_A_1-TAITTOPUOMI_FEM-1.2410        0.0361684           3.3177          108.476       NO       
      P000516_A_1-TAITTOPUOMI_FEM-1.2414       0.00286471          8.19749          164.954       NO       
      P000516_A_1-TAITTOPUOMI_FEM-1.2416       0.00143772          24.1631          152.643       NO       
      P000516_A_1-TAITTOPUOMI_FEM-1.2417        0.0106956          13.1327          146.176       NO       
      P000516_A_1-TAITTOPUOMI_FEM-1.2419       0.00500022          13.9469          155.826       NO       
      P000516_A_1-TAITTOPUOMI_FEM-1.2420      0.000863799          7.34458          166.053       NO       
      P000516_A_1-TAITTOPUOMI_FEM-1.2421       0.00159885          13.8423          117.316       NO       
      P000516_A_1-TAITTOPUOMI_FEM-1.2423        0.0139648          8.79778          129.431       NO       
      P000516_A_1-TAITTOPUOMI_FEM-1.2426       0.00514194          17.0142          152.999       NO       
      P000516_A_1-TAITTOPUOMI_FEM-1.2427       0.00140138          4.86122          121.792       NO       
      P000516_A_1-TAITTOPUOMI_FEM-1.2428      0.000142778          6.35692          170.914       NO       
      P000516_A_1-TAITTOPUOMI_FEM-1.2436       0.00130723          13.9621          150.604       NO       
      P000516_A_1-TAITTOPUOMI_FEM-1.2440       0.00640086          12.5735          141.652       NO       
      P000516_A_1-TAITTOPUOMI_FEM-1.2441       0.00173803          17.6167          143.481       NO       
      P000516_A_1-TAITTOPUOMI_FEM-1.2442        0.0017126          22.8537          143.069       NO       
      P000516_A_1-TAITTOPUOMI_FEM-1.2443        0.0120182          10.3122          139.609       NO       
      P000516_A_1-TAITTOPUOMI_FEM-1.2444      2.25197E-05          3.07767          156.672       NO       
      P000516_A_1-TAITTOPUOMI_FEM-1.2445      0.000189202          11.9451          167.427       NO       
      P000516_A_1-TAITTOPUOMI_FEM-1.2446        0.0120242           19.116          150.136       NO       
      P000516_A_1-TAITTOPUOMI_FEM-1.2447      0.000473519          19.7085          154.314       NO       
      P000516_A_1-TAITTOPUOMI_FEM-1.2448       0.00624708          10.9045          130.549       NO       
      P000516_A_1-TAITTOPUOMI_FEM-1.2450      0.000281834            6.781          162.493       NO       
      P000516_A_1-TAITTOPUOMI_FEM-1.2452       0.00593455          11.5174          156.303       NO       
      P000516_A_1-TAITTOPUOMI_FEM-1.2454       0.00113271          8.53672          163.621       NO       
      P000516_A_1-TAITTOPUOMI_FEM-1.2456       2.2639E-05          4.46329          130.247       NO       
      P000516_A_1-TAITTOPUOMI_FEM-1.2458        0.0212371          2.63876           154.65       NO       
      P000516_A_1-TAITTOPUOMI_FEM-1.2461       0.00230035          12.0353          142.648       NO       
      P000516_A_1-TAITTOPUOMI_FEM-1.2463        0.0181877          7.16661          125.756       NO       
      P000516_A_1-TAITTOPUOMI_FEM-1.2464        0.0125474          30.2421          121.417       NO       
      P000516_A_1-TAITTOPUOMI_FEM-1.2467       0.00921813          16.6634          142.383       NO       
      P000516_A_1-TAITTOPUOMI_FEM-1.2472      7.08146E-05          14.1423          157.934       NO       
      P000516_A_1-TAITTOPUOMI_FEM-1.2475       0.00329037          26.7303          159.013       NO       
      P000516_A_1-TAITTOPUOMI_FEM-1.2476       0.00109605          4.97004          168.047       NO       
      P000516_A_1-TAITTOPUOMI_FEM-1.2477       0.00444132          4.31876          116.683       NO       
      P000516_A_1-TAITTOPUOMI_FEM-1.2480       0.00647879          8.98991          157.665       NO       
      P000516_A_1-TAITTOPUOMI_FEM-1.2481       0.00113807          4.79415          123.522       NO       
      P000516_A_1-TAITTOPUOMI_FEM-1.2484       0.00425902          19.7085          153.402       NO       
      P000516_A_1-TAITTOPUOMI_FEM-1.2485       0.00355578          5.11669          120.576       NO       
      P000516_A_1-TAITTOPUOMI_FEM-1.2487       3.0781E-05           6.7339          164.313       NO       
      P000516_A_1-TAITTOPUOMI_FEM-1.2492        0.0139929          23.4459          127.109       NO       
      P000516_A_1-TAITTOPUOMI_FEM-1.2500       0.00234539          10.8978          110.066       NO       
      P000516_A_1-TAITTOPUOMI_FEM-1.2502       0.00355036          33.8603          117.234       NO       
      P000516_A_1-TAITTOPUOMI_FEM-1.2504       0.00132814          12.4186          107.036       NO       
      P000516_A_1-TAITTOPUOMI_FEM-1.2505        0.0158257          31.6824          111.756       NO       
      P000516_A_1-TAITTOPUOMI_FEM-1.2514        0.0109446          26.4654          140.687       NO       
      P000516_A_1-TAITTOPUOMI_FEM-1.2523       0.00582683          9.87514          132.058       NO       
      P000516_A_1-TAITTOPUOMI_FEM-1.2524        0.0310534          9.73583          95.6521       NO       
      P000516_A_1-TAITTOPUOMI_FEM-1.2526       0.00751006          14.5136             142.       NO       
      P000516_A_1-TAITTOPUOMI_FEM-1.2539      1.61351E-05          3.67812          165.316       NO       
      P000516_A_1-TAITTOPUOMI_FEM-1.2541       0.00681813          28.3229          142.906       NO       
      P000516_A_1-TAITTOPUOMI_FEM-1.2543      0.000580081          19.7085          152.796       NO       
      P000516_A_1-TAITTOPUOMI_FEM-1.2545      0.000205854         0.430872          113.977       NO       
      P000516_A_1-TAITTOPUOMI_FEM-1.2546       0.00230035          10.0799          116.855       NO       
      P000516_A_1-TAITTOPUOMI_FEM-1.2552        0.0139929          23.7746          123.609       NO       
      P000516_A_1-TAITTOPUOMI_FEM-1.2555      0.000510531          3.43319          111.585       NO       
      P000516_A_1-TAITTOPUOMI_FEM-1.2558        0.0135366          16.5992          149.017       NO       
      P000516_A_1-TAITTOPUOMI_FEM-1.2560       0.00277038          8.78699          159.802       NO       
      P000516_A_1-TAITTOPUOMI_FEM-1.2561        0.0185902          12.9759          149.597       NO       
      P000516_A_1-TAITTOPUOMI_FEM-1.2563        0.0541658          5.81436          111.701       NO       
      P000516_A_1-TAITTOPUOMI_FEM-1.2564        0.0113967          18.9401           134.05       NO       
      P000516_A_1-TAITTOPUOMI_FEM-1.2568        0.0907136          6.47959          121.579       NO       
      P000516_A_1-TAITTOPUOMI_FEM-1.2569        0.0116829          14.2884          147.467       NO       
      P000516_A_1-TAITTOPUOMI_FEM-1.2576      0.000307029          7.46835          162.857       NO       
      P000516_A_1-TAITTOPUOMI_FEM-1.2577        0.0199012          39.4665          136.254       NO       
      P000516_A_1-TAITTOPUOMI_FEM-1.2578        0.0199012          11.3538          128.204       NO       
      P000516_A_1-TAITTOPUOMI_FEM-1.2582         0.056328          6.37121          147.014       NO       
      P000516_A_1-TAITTOPUOMI_FEM-1.2584       0.00194259          55.2155          152.607       NO       
      P000516_A_1-TAITTOPUOMI_FEM-1.2597         0.038716          9.78955          111.248       NO       
      P000516_A_1-TAITTOPUOMI_FEM-1.2601       0.00461097          18.6823          102.819       NO       
      P000516_A_1-TAITTOPUOMI_FEM-1.2607       0.00653526          23.9893          131.431       NO       
      P000516_A_1-TAITTOPUOMI_FEM-1.2611       0.00461097          13.0849          117.524       NO       
      P000516_A_1-TAITTOPUOMI_FEM-1.2623         0.153824          8.01384          126.563       NO       
      P000516_A_1-TAITTOPUOMI_FEM-1.2626        0.0408171          7.23811          119.495       NO       
      P000516_A_1-TAITTOPUOMI_FEM-1.2627       0.00553333          16.9086          122.527       NO       
      P000516_A_1-TAITTOPUOMI_FEM-1.2629       0.00604452          23.3162           132.61       NO       
      P000516_A_1-TAITTOPUOMI_FEM-1.2631        0.0523614          4.43484          144.113       NO       
      P000516_A_1-TAITTOPUOMI_FEM-1.2632       0.00040366          6.95521          159.204       NO       
      P000516_A_1-TAITTOPUOMI_FEM-1.2633        0.0192788          31.0725          113.531       NO       
      P000516_A_1-TAITTOPUOMI_FEM-1.2639        0.0471048          9.27225          123.731       NO       
      P000516_A_1-TAITTOPUOMI_FEM-1.2640       0.00818448          6.76027          162.247       NO       
      P000516_A_1-TAITTOPUOMI_FEM-1.2649         0.103536          6.91578          93.2516       NO       
      P000516_A_1-TAITTOPUOMI_FEM-1.2657       0.00653526          3.11262          114.862       NO       
      P000516_A_1-TAITTOPUOMI_FEM-1.2658       0.00057742           10.021          125.295       NO       
      P000516_A_1-TAITTOPUOMI_FEM-1.2662       0.00553333          15.3166          105.655       NO       
      P000516_A_1-TAITTOPUOMI_FEM-1.2664        0.0152363          17.4686          129.842       NO       
      P000516_A_1-TAITTOPUOMI_FEM-1.2665        0.0286303          8.38225          98.9516       NO       
      P000516_A_1-TAITTOPUOMI_FEM-1.2673       0.00544835          11.3728          145.335       NO       
      P000516_A_1-TAITTOPUOMI_FEM-1.2702        0.0399628          7.27603          111.459       NO       
      P000516_A_1-TAITTOPUOMI_FEM-1.2704        0.0161095          28.7917          137.928       NO       
      P000516_A_1-TAITTOPUOMI_FEM-1.2706      7.77887E-05            6.353           163.82       NO       
      P000516_A_1-TAITTOPUOMI_FEM-1.2707       0.00111972          38.8969          154.857       NO       
      P000516_A_1-TAITTOPUOMI_FEM-1.2712        0.0137604          17.6532          141.875       NO       
      P000516_A_1-TAITTOPUOMI_FEM-1.2714        0.0882841          8.55361          108.837       NO       
      P000516_A_1-TAITTOPUOMI_FEM-1.2717       0.00780965          28.9672          114.277       NO       
      P000516_A_1-TAITTOPUOMI_FEM-1.2718       0.00544835           27.013            157.4       NO       
      P000516_A_1-TAITTOPUOMI_FEM-1.2719       0.00981937          10.1017          115.765       NO       
      P000516_A_1-TAITTOPUOMI_FEM-1.2721      4.29496E-05          18.1458          170.089       NO       
      P000516_A_1-TAITTOPUOMI_FEM-1.2722       0.00314919           28.542          157.035       NO       
      P000516_A_1-TAITTOPUOMI_FEM-1.2725       0.00780965          8.25931          118.681       NO       
      P000516_A_1-TAITTOPUOMI_FEM-1.2728       0.00574862          17.1753          127.608       NO       
      P000516_A_1-TAITTOPUOMI_FEM-1.2729       0.00198025          3.32875          157.355       NO       
      P000516_A_1-TAITTOPUOMI_FEM-1.2730      2.70104E-05          3.97661          150.588       NO       
      P000516_A_1-TAITTOPUOMI_FEM-1.2731         0.154998          9.82978           96.852       NO       
      P000516_A_1-TAITTOPUOMI_FEM-1.2732      0.000912817          11.5397          109.348       NO       
  
  
  *Step, name=matrix-step
  *Step, name=matrix-step
  *Step, name=matrix-step
  *matrixgenerate, stiffness, mass
  *matrixoutput, stiffness, format=COORDINATE, mass
  *endstep
  *Step, name=matrix-step
  *endstep



                            P R O B L E M   S I Z E


          NUMBER OF ELEMENTS IS                                  2732
          NUMBER OF NODES IS                                     5409
          NUMBER OF NODES DEFINED BY THE USER                    5409
          TOTAL NUMBER OF VARIABLES IN THE MODEL                16227
          (DEGREES OF FREEDOM PLUS MAX NO. OF ANY LAGRANGE MULTIPLIER
           VARIABLES. INCLUDE *PRINT,SOLVE=YES TO GET THE ACTUAL NUMBER.)



                              END OF USER INPUT PROCESSING



     JOB TIME SUMMARY
       USER TIME (SEC)      =  0.50000    
       SYSTEM TIME (SEC)    =   0.0000    
       TOTAL CPU TIME (SEC) =  0.50000    
       WALLCLOCK TIME (SEC) =          1
1

   Abaqus 2020                                  Date 12-kesä-2023   Time 13:08:24
   For use by OULUN YLIOPISTO under license from Dassault Systemes or its subsidiary.

                                                                                               STEP    1  INCREMENT    1
                                                                                          TIME COMPLETED IN THIS STEP   0.00    
 


                        S T E P       1     M A T R I X   G E N E R A T E
 
  THE FOLLOWING GLOBAL MATRICES WILL BE GENERATED AND WRITTEN TO tiltboom-120623_X1.sim

    STIFFNESS
    MASS
 
  THE MASS MATRIX PROPERTIES: CONSISTENT MASS MATRIX
 
  IF MULTI-POINT CONSTRAINTS ARE SPECIFIED IN THE MODEL, THEY WILL BE APPLIED
 
  THE FOLLOWING GLOBAL MATRICES WILL BE WRITTEN TO THE FOLLOWING TEXT FILES

    STIFFNESS          TO tiltboom-120623_STIF1.mtx
    MASS               TO tiltboom-120623_MASS1.mtx
 
  MATRIX OUTPUT FORMAT - COORDINATE



                    TOTAL MASS OF MODEL

                       76.61383    


                    LOCATION OF THE CENTER OF MASS OF THE MODEL

                      0.4981805          0.2395001         -9.2663479E-05


                    MOMENTS OF INERTIA ABOUT THE ORIGIN
                           I(XX)               I(YY)               I(ZZ)

                       5.142519           47.16435           51.87996    


                    PRODUCTS OF INERTIA ABOUT THE ORIGIN
                           I(XY)               I(XZ)               I(YZ)

                      -10.06077          4.9218316E-03      2.4335814E-03


                    MOMENTS OF INERTIA ABOUT THE CENTER OF MASS
                           I(XX)               I(YY)               I(ZZ)

                      0.7479280           28.15003           28.47105    


                    PRODUCTS OF INERTIA ABOUT THE CENTER OF MASS
                           I(XY)               I(XZ)               I(YZ)

                     -0.9196446          1.3850964E-03      7.3329759E-04
  
                   M E M O R Y   E S T I M A T E
  
 PROCESS      FLOATING PT       MINIMUM MEMORY        MEMORY TO
              OPERATIONS           REQUIRED          MINIMIZE I/O
             PER ITERATION           (MB)               (MB)
  
     1          0.00E+00               23                 39
  
 NOTE:
      (1) SINCE ABAQUS DOES NOT PRE-ALLOCATE MEMORY AND ONLY ALLOCATES MEMORY AS NEEDED DURING THE ANALYSIS,
          THE MEMORY REQUIREMENT PRINTED HERE CAN ONLY BE VIEWED AS A GENERAL GUIDELINE BASED ON THE BEST
          KNOWLEDGE AVAILABLE AT THE BEGINNING OF A STEP BEFORE THE SOLUTION PROCESS HAS BEGUN.
      (2) THE ESTIMATE IS NORMALLY UPDATED AT THE BEGINNING OF EVERY STEP. IT IS THE MAXIMUM VALUE OF THE
          ESTIMATE FROM THE CURRENT STEP TO THE LAST STEP OF THE ANALYSIS, WITH UNSYMMETRIC SOLUTION TAKEN
          INTO ACCOUNT IF APPLICABLE. 
      (3) SINCE THE ESTIMATE IS BASED ON THE ACTIVE DEGREES OF FREEDOM IN THE FIRST ITERATION OF THE 
          CURRENT STEP, THE MEMORY ESTIMATE MIGHT BE SIGNIFICANTLY DIFFERENT THAN ACTUAL USAGE FOR 
          PROBLEMS WITH SUBSTANTIAL CHANGES IN ACTIVE DEGREES OF FREEDOM BETWEEN STEPS (OR EVEN WITHIN
          THE SAME STEP). EXAMPLES ARE: PROBLEMS WITH SIGNIFICANT CONTACT CHANGES, PROBLEMS WITH MODEL
          CHANGE, PROBLEMS WITH BOTH STATIC STEP AND STEADY STATE DYNAMIC PROCEDURES WHERE ACOUSTIC 
          ELEMENTS WILL ONLY BE ACTIVATED IN THE STEADY STATE DYNAMIC STEPS.
      (4) FOR MULTI-PROCESS EXECUTION, THE ESTIMATED VALUE OF FLOATING POINT OPERATIONS FOR EACH PROCESS
          IS BASED ON AN INITIAL SCHEDULING OF OPERATIONS AND MIGHT NOT REFLECT THE ACTUAL FLOATING 
          POINT OPERATIONS COMPLETED ON EACH PROCESS. OPERATIONS ARE DYNAMICALLY BALANCED DURING EXECUTION, 
          SO THE ACTUAL BALANCE OF OPERATIONS BETWEEN PROCESSES IS EXPECTED TO BE BETTER THAN THE ESTIMATE
          PRINTED HERE.
      (5) THE UPPER LIMIT OF MEMORY THAT CAN BE ALLOCATED BY ABAQUS WILL IN GENERAL DEPEND ON THE VALUE OF
          THE "MEMORY" PARAMETER AND THE AMOUNT OF PHYSICAL MEMORY AVAILABLE ON THE MACHINE. PLEASE SEE
          THE "ABAQUS ANALYSIS USER'S MANUAL" FOR MORE DETAILS. THE ACTUAL USAGE OF MEMORY AND OF DISK
          SPACE FOR SCRATCH DATA WILL DEPEND ON THIS UPPER LIMIT AS WELL AS THE MEMORY REQUIRED TO MINIMIZE
          I/O. IF THE MEMORY UPPER LIMIT IS GREATER THAN THE MEMORY REQUIRED TO MINIMIZE I/O, THEN THE ACTUAL
          MEMORY USAGE WILL BE CLOSE TO THE ESTIMATED "MEMORY TO MINIMIZE I/O" VALUE, AND THE SCRATCH DISK
          USAGE WILL BE CLOSE-TO-ZERO; OTHERWISE, THE ACTUAL MEMORY USED WILL BE CLOSE TO THE PREVIOUSLY
          MENTIONED MEMORY LIMIT, AND THE SCRATCH DISK USAGE WILL BE ROUGHLY PROPORTIONAL TO THE DIFFERENCE
          BETWEEN THE ESTIMATED "MEMORY TO MINIMIZE I/O" AND THE MEMORY UPPER LIMIT. HOWEVER ACCURATE
          ESTIMATE OF THE SCRATCH DISK SPACE IS NOT POSSIBLE.
      (6) USING "*RESTART, WRITE" CAN GENERATE A LARGE AMOUNT OF DATA WRITTEN IN THE WORK DIRECTORY.
  


          THE ANALYSIS HAS BEEN COMPLETED



                              ANALYSIS COMPLETE
                              WITH      1 WARNING MESSAGES ON THE DAT FILE



     JOB TIME SUMMARY
       USER TIME (SEC)      =   1.5000    
       SYSTEM TIME (SEC)    =  0.20000    
       TOTAL CPU TIME (SEC) =   1.7000    
       WALLCLOCK TIME (SEC) =          2
