*Heading
** Job name: tiltboom-120623 Model name: Model-1
** Generated by: Abaqus/CAE 2020
*Preprint, echo=NO, model=NO, history=NO, contact=NO
**
** PARTS
**
*Part, name=P000516_A_1-Taittopuomi_fem
*Node
      1, -0.437999994,        0.287, 0.0510110967
      2, -0.437999994,        0.287, 0.0450110957
      3, -0.180000007,  0.185000002, -0.0390110984
      4, -0.180000007,  0.185000002, 0.0390110984
      5, -0.465000004,  0.185000002, 0.0390110984
      6, -0.465000004,  0.185000002, -0.0390110984
      7, -0.180000007,  0.196999997, 0.0510110967
      8, -0.465000004,  0.196999997, 0.0510110967
      9, -0.180000007,  0.335000008, 0.0510110967
     10, -0.465000004,  0.335000008, 0.0510110967
     11, -0.180000007,  0.347000003, 0.0390110984
     12, -0.465000004,  0.347000003, 0.0390110984
     13, -0.180000007,  0.347000003, -0.0389883183
     14, -0.465000004,  0.347000003, -0.0389883183
     15, -0.180000007,  0.340999991, -0.0367459431
     16, -0.180000007,  0.340999991, 0.0402482636
     17, -0.465000004,  0.340999991, 0.0402482636
     18, -0.465000004,  0.340999991, -0.0367459431
     19, -0.180000007,  0.336237162, 0.0450110957
     20, -0.465000004,  0.336237162, 0.0450110957
** ... 5389 like lines cut
*Element, type=C3D10
  1,   25,   23,  237,    3,  921,  920,  919,  923,  922,  924
  2,  841,    3,  237,  238,  926,  924,  925,  928,  927,  929
  3,   34,  688,  238,  841,  932,  931,  930,  934,  933,  928
  4,  273,   34,  688,  238,  936,  932,  935,  937,  930,  931
  5,    3,   25,  841,  237,  923,  938,  926,  924,  919,  925
  6,    4,    3,  237,   23,  940,  924,  939,  941,  922,  920
  7,  841,   25,  260,  688,  938,  943,  942,  933,  944,  945
  8,  841,  260,    3,   34,  942,  946,  926,  934,  947,  948
  9,   14,   18,  246,   12,  951,  950,  949,  953,  952,  954
 10,  246,   12,  243,   14,  954,  956,  955,  949,  953,  957
 11,  245,   17,  243,  246,  960,  959,  958,  962,  961,  955
 12,   32,  689,  244,  842,  965,  964,  963,  967,  966,  968
 13,   29,  843,  265,  689,  971,  970,  969,  973,  972,  974
 14,   12,   18,  246,   17,  952,  950,  954,  976,  975,  961
 15,  842,   18,  264,  689,  979,  978,  977,  966,  980,  981
 16,  842,   14,   32,  264,  983,  982,  967,  977,  984,  985
 17,  844,   26,    6,    5,  988,  987,  986,  990,  989,  991
 18,  257,    5,   26,  844,  993,  989,  992,  994,  990,  988
 19,   24,  257,    5,   26,  996,  993,  995,  997,  992,  989
 20,  844,    6,  259,  238,  986,  999,  998, 1001, 1000, 1002
** ... 2712 like lines cut
*Nset, nset=InitiallyInvalid
 136, 137, 139, 141, 144
*Nset, nset=Set-2
   69,   70,   71,   72,   73,   74,   75,   76,   77,   78,   79,   80,   81,   82,   83,   84
   85,   86,   87,   88,   89,   90,   91,   92,   93,   94,   95,   96,   97,   98,   99,  100
  101,  102,  103,  104,  105,  106,  107,  108,  109,  110,  111,  112,  113,  114,  115,  116
  117,  118,  119,  120,  121,  122,  123,  124,  125,  126,  127,  128,  129,  130,  131,  132
  133,  134,  135,  136,  137,  138,  139,  140,  141,  142,  143,  144,  145,  146,  147,  148
  149,  150,  151,  152,  153,  154,  155,  156,  157,  158,  159,  160,  161,  162,  163,  164
  165,  166,  167,  170,  171,  172,  173,  174,  175,  176,  177,  178,  179,  180,  181,  182
  183,  184,  185,  186,  187,  188,  189,  190,  191,  192,  193,  194,  195,  196,  197,  198
  199,  200,  201,  202,  203,  204,  205,  206,  207,  208,  209,  210,  211,  212,  213,  214
  215,  216,  217,  218,  219,  220,  221,  222,  409,  410,  411,  412,  413,  414,  415,  416
  417,  418,  419,  420,  421,  422,  423,  424,  425,  426,  427,  428,  429,  430,  431,  432
  433,  434,  435,  436,  437,  438,  439,  440,  441,  442,  443,  444,  445,  446,  447,  448
  449,  450,  451,  452,  453,  454,  455,  456,  457,  458,  459,  460,  461,  462,  463,  464
  465,  466,  467,  468,  469,  470,  471,  472,  473,  474,  475,  476,  477,  478,  479,  480
  481,  482,  483,  484,  485,  486,  487,  488,  489,  490,  491,  492,  493,  494,  495,  496
  497,  498,  499,  500,  501,  502,  503,  504,  505,  506,  507,  508,  509,  510,  587,  588
  589,  590,  591,  592,  593,  594,  595,  596,  597,  598,  599,  600,  601,  602,  603,  604
  605,  606,  607,  608,  609,  610,  611,  612,  613,  614,  615,  616,  617,  618,  619,  620
  621,  622,  623,  624,  625,  626,  627,  628,  629,  630,  631,  632,  633,  634,  635,  636
  637,  638,  639,  640,  641,  642,  643,  644,  645,  646,  647,  648,  649,  650,  651,  652
** ... 109 like lines cut
*Elset, elset=Set-2
 1084, 1085, 1086, 1087, 1088, 1089, 1090, 1091, 1092, 1093, 1094, 1095, 1096, 1097, 1098, 1099
 1100, 1101, 1102, 1103, 1104, 1105, 1106, 1107, 1108, 1109, 1110, 1111, 1112, 1113, 1114, 1115
 1116, 1117, 1118, 1119, 1120, 1121, 1122, 1123, 1124, 1125, 1126, 1127, 1128, 1129, 1130, 1131
 1132, 1133, 1134, 1135, 1136, 1137, 1138, 1139, 1140, 1141, 1142, 1143, 1144, 1145, 1146, 1147
 1148, 1149, 1150, 1151, 1152, 1153, 1154, 1155, 1156, 1157, 1158, 1159, 1160, 1161, 1162, 1163
 1164, 1165, 1166, 1167, 1168, 1169, 1170, 1171, 1172, 1173, 1174, 1175, 1176, 1177, 1178, 1179
 1180, 1181, 1182, 1183, 1184, 1185, 1186, 1187, 1188, 1189, 1190, 1191, 1192, 1193, 1194, 1195
 1196, 1197, 1198, 1199, 1200, 1201, 1202, 1203, 1204, 1205, 1206, 1207, 1208, 1209, 1210, 1211
 1212, 1213, 1214, 1215, 1216, 1217, 1218, 1219, 1220, 1221, 1222, 1223, 1224, 1225, 1226, 1227
 1228, 1229, 1230, 1231, 1232, 1233, 1234, 1235, 1236, 1237, 1238, 1239, 1240, 1241, 1242, 1243
 1244, 1245, 1246, 1247, 1248, 1249, 1250, 1251, 1252, 1253, 1254, 1255, 1256, 1257, 1258, 1259
 1260, 1261, 1262, 1263, 1264, 1265, 1266, 1267, 1268, 1269, 1270, 1271, 1272, 1273, 1274, 1275
 1276, 1277, 1278, 1279, 1280, 1281, 1282, 1283, 1284, 1285, 1286, 1287, 1288, 1289, 1290, 1291
 1292, 1293, 1294, 1295, 1296, 1297, 1298, 1299, 1300, 1301, 1302, 1303, 1304, 1305, 1306, 1307
 1308, 1309, 1310, 1311, 1312, 1313, 1314, 1315, 1316, 1317, 1318, 1319, 1320, 1321, 1322, 1323
 1324, 1325, 1326, 1327, 1328, 1329, 1330, 1331, 1332, 1333, 1334, 1335, 1336, 1337, 1338, 1339
 1340, 1341, 1342, 1343, 1344, 1345, 1346, 1347, 1348, 1349, 1350, 1351, 1352, 1353, 1354, 1355
 1356, 1357, 1358, 1359, 1360, 1361, 1362, 1363, 1364, 1365, 1366, 1367, 1368, 1369, 1370, 1371
 1372, 1373, 1374, 1375, 1376, 1377, 1378, 1379, 1380, 1381, 1382, 1383, 1384, 1385, 1386, 1387
 1388, 1389, 1390, 1391, 1392, 1393, 1394, 1395, 1396, 1397, 1398, 1399, 1400, 1401, 1402, 1403
** ... 35 like lines cut
*Nset, nset=Set-12, generate
    1,  5409,     1
*Elset, elset=Set-12, generate
    1,  2732,     1
** Section: Section-1
*Solid Section, elset=Set-12, material=Material-1
,
*End Part
**  
**
** ASSEMBLY
**
*Assembly, name=Assembly
**  
*Instance, name=P000516_A_1-Taittopuomi_fem-1, part=P000516_A_1-Taittopuomi_fem
*End Instance
**  
*End Assembly
** 
** MATERIALS
** 
*Material, name=Material-1
*Density
7850.,
*Elastic
 2.1e+11, 0.3
** ----------------------------------------------------------------
** 
** 
** STEP: Matrix gen
*Step, name=matrix-step
*Matrix generate, stiffness, mass
*Matrix output, stiffness, mass, format=coordinate
*End Step