1

   Abaqus 2020                                  Date 26-touko-2023   Time 16:02:22
   For use by OULUN YLIOPISTO under license from Dassault Systemes or its subsidiary.



                         The Abaqus Software is a product of:

                           Dassault Systemes SIMULIA Corp.
                           1301 Atwood Avenue, Suite 101W
                              Johnston, RI 02919, USA
 


                   The Abaqus Software is available only under license
                   from Dassault Systemes or its subsidiary and may be
                   used or reproduced only in accordance with the terms
                   of such license.
 
                          On machine oy2206029 
                          you are authorized to run
                          Abaqus/Foundation until 30-Dec-2023

                          Your site id is: 100000000002728 


 
                    For assistance or any other information you may
                    obtain contact information for your local office
                    from the world wide web at:

                      http://www.3ds.com/products/simulia/locations/

 
                * * * * * * * * * * * * * * * * * * * * * * * * * * * * * * 
                *                                                         * 
                *                   *****************                     * 
                *                   *  N O T I C E  *                     * 
                *                   *****************                     * 
                *                                                         * 
                *                                                         * 
                *                       Abaqus 2020                       * 
                *                                                         * 
                *          BUILD ID: 2019_09_13-20.49.31 163176           * 
                *                                                         * 
                *                                                         * 
                *  Please make sure you are using                         * 
                *  release Abaqus 2020 manuals                            * 
                *  plus the notes accompanying this release.              * 
                *                                                         * 
                *                                                         * 
                *                                                         * 
                *                                                         * 
                *                                                         * 
                *   This program may not be used for commercial purposes  * 
                *           without payment of a commercial fee.          * 
                *                                                         * 
                * * * * * * * * * * * * * * * * * * * * * * * * * * * * * * 


 



     PROCESSING PART, INSTANCE, AND ASSEMBLY INFORMATION
   *******************************************************


     END PROCESSING PART, INSTANCE, AND ASSEMBLY INFORMATION
   ***********************************************************




     OPTIONS BEING PROCESSED
   ***************************


  *Heading
  *Node
  *Element, type=C3D10
  *Nset, nset=ASSEMBLY_P000524_A_1-NOSTOPUOMI_V2-1_INITIALLYINVALID
  *Nset, nset=ASSEMBLY_P000524_A_1-NOSTOPUOMI_V2-1_SET-21
  *Elset, elset=ASSEMBLY_P000524_A_1-NOSTOPUOMI_V2-1_SET-21
  *material, name=MATERIAL-1
  *density
  *elastic
  *solidsection, elset=ASSEMBLY_P000524_A_1-NOSTOPUOMI_V2-1_SET-21, material=MATERIAL-1
  *solidsection, elset=ASSEMBLY_P000524_A_1-NOSTOPUOMI_V2-1_SET-21, material=MATERIAL-1
  *output, field, variable=PRESELECT
  *output, field, variable=PRESELECT
  *output, field, variable=PRESELECT
  
                               E L E M E N T   Q U A L I T Y  C H E C K S        
  
  
 ***NOTES: DISTORTED ISOPARAMETRIC ELEMENTS: ANGLE BETWEEN ISOPARAMETRIC LINES 
           IS LESS THAN 45 DEGREES OR GREATER THAN 135 DEGREES.
  
           TETRAHEDRAL QUALITY MEASURE: VOLUME OF TETRAHEDRON DIVIDED BY THE 
           VOLUME OF EQUILATERAL TETRAHEDRON WITH SAME CIRCUMSPHERE RADIUS; 
           0 FOR DEGENERATE TETRAHEDRON AND 1 FOR EQUILATERIAL TETRAHEDRON. IT 
           IS RECOMMENDED THAT THE TETRAHEDRAL QUALITY MEASURE BE GREATER THAN 
           0.02, THE MIN INTERIOR (DIHEDRAL) ANGLE BE GREATER THAN 10 DEGREES, 
           AND THE MAX INTERIOR (DIHEDRAL) ANGLE BE LESS THAN 160 DEGREES. 
  
           MODIFIED TETRAHEDRAL QUALITY MEASURE: ANGLES BETWEEN THE TWO LINE 
           SEGMENTS ON EACH EDGE; THE EDGES OF MODIFIED TETRAHEDRAL SHOULD BE 
           AS STRAIGHT AS POSSIBLE. IT IS RECOMMENDED THAT THE ANGLE BETWEEN 
           THE TWO LINE SEGMENTS ON EACH EDGE IS BETWEEN 160 AND 180 DEGREES. 
  
           TRIANGULAR QUALITY MEASURE: AREA OF TRIANGLE DIVIDED BY THE AREA OF 
           EQUILATERAL TRIANGLE WITH SAME CIRCUMCIRCLE RADIUS; 0 FOR DEGENERATE 
           TRIANGLE AND 1 FOR EQUILATERAL TRIANGLE. IT IS RECOMMENDED THAT THE
           TRIANGULAR QUALITY MEASURE BE GREATER THAN 0.01, THE MIN INTERIOR 
           ANGLE BE GREATER THAN 10 DEGREES, AND THE MAX INTERIOR ANGLE BE LESS 
           THAN 160 DEGREES. 
  
           NODAL ADJUSTMENTS ARISING FROM CONTACT INTERACTIONS AND/OR TIE 
           CONSTRAINTS CAN CAUSE SEVERE ELEMENT DISTORTION. IT MAY BE NECESSARY 
           TO REMESH IN ORDER TO REDUCE THE AMOUNT OF ADJUSTMENT. 

 ***WARNING: 3331 elements are distorted. Either the isoparametric angles are 
             out of the suggested limits or the triangular or tetrahedral 
             quality measure is bad. The elements have been identified in 
             element set WarnElemDistorted.
  
 --------------------------------------------------------------------------------
 Distorted tetrahedral elements
  
                Element                Quality measure     Min angle        Max angle     Adjusted nodes 
 ------------------------------------- ---------------- ---------------- ---------------- -------------- 
         P000524_A_1-NOSTOPUOMI_V2-1.1        0.0379332          5.58092              90.       NO       
         P000524_A_1-NOSTOPUOMI_V2-1.2       0.00700793          14.4807          112.111       NO       
         P000524_A_1-NOSTOPUOMI_V2-1.4        0.0187423          30.6419          149.416       NO       
         P000524_A_1-NOSTOPUOMI_V2-1.5        0.0379332          5.58007              90.       NO       
         P000524_A_1-NOSTOPUOMI_V2-1.6       0.00783712          25.4456          101.311       NO       
         P000524_A_1-NOSTOPUOMI_V2-1.7        0.0798223          3.85671          91.4875       NO       
         P000524_A_1-NOSTOPUOMI_V2-1.8        0.0410057           3.8377          92.2901       NO       
         P000524_A_1-NOSTOPUOMI_V2-1.9        0.0379332          2.39482              90.       NO       
        P000524_A_1-NOSTOPUOMI_V2-1.10        0.0379332          5.58007              90.       NO       
        P000524_A_1-NOSTOPUOMI_V2-1.11        0.0102602          7.33751          93.3563       NO       
        P000524_A_1-NOSTOPUOMI_V2-1.12        0.0379332          5.58092              90.       NO       
        P000524_A_1-NOSTOPUOMI_V2-1.13      5.12887E-05          4.23239          172.349       NO       
        P000524_A_1-NOSTOPUOMI_V2-1.14      2.28283E-05          2.83544          173.933       NO       
        P000524_A_1-NOSTOPUOMI_V2-1.16      5.63887E-06          2.40759          176.212       NO       
        P000524_A_1-NOSTOPUOMI_V2-1.17      3.69492E-05          2.67287          171.537       NO       
        P000524_A_1-NOSTOPUOMI_V2-1.18       0.00697795          9.98501          157.168       NO       
        P000524_A_1-NOSTOPUOMI_V2-1.19       0.00115772          1.47677           175.69       NO       
        P000524_A_1-NOSTOPUOMI_V2-1.20      2.86288E-05          1.88507          176.378       NO       
        P000524_A_1-NOSTOPUOMI_V2-1.21        0.0401777          3.99346          92.3313       NO       
        P000524_A_1-NOSTOPUOMI_V2-1.22        0.0683626          3.63262          91.5177       NO       
        P000524_A_1-NOSTOPUOMI_V2-1.23        0.0412132          3.95459          92.2799       NO       
        P000524_A_1-NOSTOPUOMI_V2-1.24        0.0844436          4.03297          91.2342       NO       
        P000524_A_1-NOSTOPUOMI_V2-1.25      5.05687E-06          2.46761          176.243       NO       
        P000524_A_1-NOSTOPUOMI_V2-1.26      5.81189E-06            2.268          176.211       NO       
        P000524_A_1-NOSTOPUOMI_V2-1.27        0.0147751          4.94684          93.5097       NO       
        P000524_A_1-NOSTOPUOMI_V2-1.28        0.0844436          3.76809          91.4227       NO       
        P000524_A_1-NOSTOPUOMI_V2-1.29        0.0799963          3.82967          91.4778       NO       
        P000524_A_1-NOSTOPUOMI_V2-1.30          0.10381          5.44323          91.2812       NO       
        P000524_A_1-NOSTOPUOMI_V2-1.31        0.0406057          3.99332          90.9411       NO       
        P000524_A_1-NOSTOPUOMI_V2-1.32        0.0368368          3.90763          92.5062       NO       
        P000524_A_1-NOSTOPUOMI_V2-1.33        0.0841182          3.99565          91.4337       NO       
        P000524_A_1-NOSTOPUOMI_V2-1.34        0.0712078          3.66038          91.5727       NO       
        P000524_A_1-NOSTOPUOMI_V2-1.35        0.0063886          2.29748          106.298       NO       
        P000524_A_1-NOSTOPUOMI_V2-1.36         0.082944          4.03257          91.5519       NO       
        P000524_A_1-NOSTOPUOMI_V2-1.37        0.0342166          4.22138          92.6438       NO       
        P000524_A_1-NOSTOPUOMI_V2-1.38        0.0063886          2.29748          106.298       NO       
        P000524_A_1-NOSTOPUOMI_V2-1.39        0.0885799          4.05657          91.3287       NO       
        P000524_A_1-NOSTOPUOMI_V2-1.40      6.79654E-06          2.57642          175.808       NO       
        P000524_A_1-NOSTOPUOMI_V2-1.41        0.0798223          3.87064          91.4897       NO       
        P000524_A_1-NOSTOPUOMI_V2-1.42        0.0847089          3.88039          91.3132       NO       
        P000524_A_1-NOSTOPUOMI_V2-1.43      7.10494E-06          2.33217          175.955       NO       
        P000524_A_1-NOSTOPUOMI_V2-1.44        0.0106247          5.14503          94.2781       NO       
        P000524_A_1-NOSTOPUOMI_V2-1.45        0.0673087          3.62312          91.5727       NO       
        P000524_A_1-NOSTOPUOMI_V2-1.46         0.124822          5.69208           91.945       NO       
        P000524_A_1-NOSTOPUOMI_V2-1.47       0.00949097          5.58092          94.3163       NO       
        P000524_A_1-NOSTOPUOMI_V2-1.48      1.08543E-05          2.22966           174.43       NO       
        P000524_A_1-NOSTOPUOMI_V2-1.49         0.045113          3.69891          92.0271       NO       
        P000524_A_1-NOSTOPUOMI_V2-1.50      1.11185E-05          2.39481          173.661       NO       
        P000524_A_1-NOSTOPUOMI_V2-1.51      1.09841E-05             2.78          174.239       NO       
        P000524_A_1-NOSTOPUOMI_V2-1.53       0.00367985          8.93779          96.9987       NO       
        P000524_A_1-NOSTOPUOMI_V2-1.54      0.000266383          4.59801          171.146       NO       
        P000524_A_1-NOSTOPUOMI_V2-1.55      0.000271416          4.71191          166.976       NO       
        P000524_A_1-NOSTOPUOMI_V2-1.56        0.0063886          38.8473          90.3601       NO       
        P000524_A_1-NOSTOPUOMI_V2-1.57        0.0799963          3.87618          91.4639       NO       
        P000524_A_1-NOSTOPUOMI_V2-1.58        0.0468837          3.57383          92.0323       NO       
        P000524_A_1-NOSTOPUOMI_V2-1.59          0.10381          5.58092          90.5474       NO       
        P000524_A_1-NOSTOPUOMI_V2-1.60      5.09165E-06          2.37941          176.311       NO       
        P000524_A_1-NOSTOPUOMI_V2-1.61      5.21266E-06          2.39343          176.355       NO       
        P000524_A_1-NOSTOPUOMI_V2-1.62      6.53261E-06          2.59602          175.957       NO       
        P000524_A_1-NOSTOPUOMI_V2-1.63         0.088452          4.14461          91.3194       NO       
        P000524_A_1-NOSTOPUOMI_V2-1.64        0.0426773          4.04525              90.       NO       
        P000524_A_1-NOSTOPUOMI_V2-1.65        0.0876009           4.0009          91.6138       NO       
        P000524_A_1-NOSTOPUOMI_V2-1.66      6.14831E-06          2.50679          175.663       NO       
        P000524_A_1-NOSTOPUOMI_V2-1.67         0.105503          5.11234          91.7207       NO       
        P000524_A_1-NOSTOPUOMI_V2-1.68        0.0808775          3.77106          91.4035       NO       
        P000524_A_1-NOSTOPUOMI_V2-1.69        0.0414817          3.64458          92.3428       NO       
        P000524_A_1-NOSTOPUOMI_V2-1.70        0.0379332          2.39482              90.       NO       
        P000524_A_1-NOSTOPUOMI_V2-1.71      6.81616E-06          2.32703          176.006       NO       
        P000524_A_1-NOSTOPUOMI_V2-1.72      5.01987E-06          2.40767           176.34       NO       
        P000524_A_1-NOSTOPUOMI_V2-1.73        0.0386054          3.72808          92.4126       NO       
        P000524_A_1-NOSTOPUOMI_V2-1.74      5.26859E-06          2.39341          176.302       NO       
        P000524_A_1-NOSTOPUOMI_V2-1.75      7.26299E-06          2.38679          175.961       NO       
        P000524_A_1-NOSTOPUOMI_V2-1.76        0.0379332          2.39482              90.       NO       
        P000524_A_1-NOSTOPUOMI_V2-1.77        0.0389892          3.82965          92.3985       NO       
        P000524_A_1-NOSTOPUOMI_V2-1.78        0.0876009          4.31823          91.4283       NO       
        P000524_A_1-NOSTOPUOMI_V2-1.79       6.0893E-06          2.40047          175.733       NO       
        P000524_A_1-NOSTOPUOMI_V2-1.80        0.0323003          4.04706          92.8317       NO       
        P000524_A_1-NOSTOPUOMI_V2-1.81        0.0885799          4.04744          91.3884       NO       
        P000524_A_1-NOSTOPUOMI_V2-1.82        0.0323003          4.22052          92.6652       NO       
        P000524_A_1-NOSTOPUOMI_V2-1.83        0.0927642          4.23947          91.3759       NO       
        P000524_A_1-NOSTOPUOMI_V2-1.84        0.0926166          4.13856          91.4918       NO       
        P000524_A_1-NOSTOPUOMI_V2-1.85      7.33167E-06          2.39346          175.761       NO       
        P000524_A_1-NOSTOPUOMI_V2-1.86      5.06604E-06          2.61557          175.926       NO       
        P000524_A_1-NOSTOPUOMI_V2-1.87        0.0386054          4.05417          92.4109       NO       
        P000524_A_1-NOSTOPUOMI_V2-1.88      3.52871E-05          5.86652          106.867       NO       
        P000524_A_1-NOSTOPUOMI_V2-1.89        0.0412307           2.3935              90.       NO       
        P000524_A_1-NOSTOPUOMI_V2-1.90        0.0667993          4.09754          91.6623       NO       
        P000524_A_1-NOSTOPUOMI_V2-1.91        0.0667993          3.59767          91.9112       NO       
        P000524_A_1-NOSTOPUOMI_V2-1.92      5.70612E-06          2.37947          176.185       NO       
        P000524_A_1-NOSTOPUOMI_V2-1.93        0.0410057          3.76623          92.3018       NO       
        P000524_A_1-NOSTOPUOMI_V2-1.94        0.0683626          3.48421          91.5125       NO       
        P000524_A_1-NOSTOPUOMI_V2-1.95         0.077069          3.74168          91.0814       NO       
        P000524_A_1-NOSTOPUOMI_V2-1.96        0.0756422          3.75607          91.5244       NO       
        P000524_A_1-NOSTOPUOMI_V2-1.97        0.0802305           4.7251           94.754       NO       
        P000524_A_1-NOSTOPUOMI_V2-1.98        0.0403931          3.85904          92.3198       NO       
        P000524_A_1-NOSTOPUOMI_V2-1.99        0.0063886          38.8473          90.3601       NO       
       P000524_A_1-NOSTOPUOMI_V2-1.100        0.0802305          4.90396              90.       NO       
       P000524_A_1-NOSTOPUOMI_V2-1.101          0.07815          3.93444          91.6716       NO       
       P000524_A_1-NOSTOPUOMI_V2-1.102        0.0673087          3.57385           91.591       NO       
       P000524_A_1-NOSTOPUOMI_V2-1.103        0.0878811          4.13424          91.5035       NO       
       P000524_A_1-NOSTOPUOMI_V2-1.104       0.00319983          1.69336          112.499       NO       
       P000524_A_1-NOSTOPUOMI_V2-1.106        0.0511372          3.45073          91.8975       NO       
       P000524_A_1-NOSTOPUOMI_V2-1.107      4.27877E-06          2.39121          176.549       NO       
       P000524_A_1-NOSTOPUOMI_V2-1.108      8.68024E-06          6.37348          174.357       NO       
       P000524_A_1-NOSTOPUOMI_V2-1.109      5.12887E-05          2.21596          176.326       NO       
       P000524_A_1-NOSTOPUOMI_V2-1.110        0.0342166          3.89465          92.6373       NO       
       P000524_A_1-NOSTOPUOMI_V2-1.111        0.0616351          3.66334          91.7043       NO       
       P000524_A_1-NOSTOPUOMI_V2-1.112      0.000125644          3.70972          171.898       NO       
       P000524_A_1-NOSTOPUOMI_V2-1.113      4.17727E-06          1.42779          170.352       NO       
       P000524_A_1-NOSTOPUOMI_V2-1.114      4.15013E-06          2.25475          176.516       NO       
       P000524_A_1-NOSTOPUOMI_V2-1.116      0.000112369          2.89706          171.085       NO       
       P000524_A_1-NOSTOPUOMI_V2-1.117       0.00314418          5.81786          168.619       NO       
       P000524_A_1-NOSTOPUOMI_V2-1.118        0.0063931          38.8654          89.6399       NO       
       P000524_A_1-NOSTOPUOMI_V2-1.119      4.30883E-05          4.08017          170.107       NO       
       P000524_A_1-NOSTOPUOMI_V2-1.121      1.11028E-06          1.91762          174.782       NO       
       P000524_A_1-NOSTOPUOMI_V2-1.122       1.6979E-05          2.31969          174.294       NO       
       P000524_A_1-NOSTOPUOMI_V2-1.123       0.00518508          10.7042          158.016       NO       
       P000524_A_1-NOSTOPUOMI_V2-1.125      2.40802E-06          2.31486          151.291       NO       
       P000524_A_1-NOSTOPUOMI_V2-1.126        0.0620179          5.66346          91.0025       NO       
       P000524_A_1-NOSTOPUOMI_V2-1.127        0.0229864          4.85642          96.5556       NO       
       P000524_A_1-NOSTOPUOMI_V2-1.128      0.000240951          6.68404          156.307       NO       
       P000524_A_1-NOSTOPUOMI_V2-1.129      7.81666E-06          3.08075          141.075       NO       
       P000524_A_1-NOSTOPUOMI_V2-1.130      1.52388E-06          2.87948          112.773       NO       
       P000524_A_1-NOSTOPUOMI_V2-1.131      2.15723E-06           2.7968          173.391       NO       
       P000524_A_1-NOSTOPUOMI_V2-1.132        0.0423682           3.8277              90.       NO       
       P000524_A_1-NOSTOPUOMI_V2-1.133      6.19639E-06          2.48913          173.258       NO       
       P000524_A_1-NOSTOPUOMI_V2-1.134         0.082944          4.06558          91.6118       NO       
       P000524_A_1-NOSTOPUOMI_V2-1.135       0.00401379          6.72603          94.3249       NO       
       P000524_A_1-NOSTOPUOMI_V2-1.136      1.23923E-06          1.90275          161.576       NO       
       P000524_A_1-NOSTOPUOMI_V2-1.137        0.0050037          16.3253          147.328       NO       
       P000524_A_1-NOSTOPUOMI_V2-1.138        0.0379332          5.58007              90.       NO       
       P000524_A_1-NOSTOPUOMI_V2-1.139        0.0198362          16.3873          147.316       NO       
       P000524_A_1-NOSTOPUOMI_V2-1.140         4.55E-07          1.72512          141.134       NO       
       P000524_A_1-NOSTOPUOMI_V2-1.141        0.0379332          5.04245          90.9375       NO       
       P000524_A_1-NOSTOPUOMI_V2-1.142      6.93343E-06           2.4797          175.593       NO       
       P000524_A_1-NOSTOPUOMI_V2-1.143       1.4135E-05          1.71491          174.748       NO       
       P000524_A_1-NOSTOPUOMI_V2-1.144       4.5504E-07          1.72516          141.132       NO       
       P000524_A_1-NOSTOPUOMI_V2-1.145       0.00401828          6.44818          96.8818       NO       
       P000524_A_1-NOSTOPUOMI_V2-1.146        1.239E-06          1.90267          161.577       NO       
       P000524_A_1-NOSTOPUOMI_V2-1.147      6.69933E-06          2.29103          176.235       NO       
       P000524_A_1-NOSTOPUOMI_V2-1.148        0.0198363          16.3873          147.316       NO       
       P000524_A_1-NOSTOPUOMI_V2-1.149       0.00319983          1.69336          112.499       NO       
       P000524_A_1-NOSTOPUOMI_V2-1.150        0.0554205          4.21973          91.6917       NO       
       P000524_A_1-NOSTOPUOMI_V2-1.151        0.0392635           2.3935          90.0393       NO       
       P000524_A_1-NOSTOPUOMI_V2-1.152         0.032945          3.80211            92.94       NO       
       P000524_A_1-NOSTOPUOMI_V2-1.153        0.0379332          5.04245          90.9375       NO       
       P000524_A_1-NOSTOPUOMI_V2-1.154         0.032945          4.44567          92.4985       NO       
       P000524_A_1-NOSTOPUOMI_V2-1.156      0.000873445          11.8834          101.109       NO       
       P000524_A_1-NOSTOPUOMI_V2-1.157      7.06664E-06          2.04872          176.344       NO       
       P000524_A_1-NOSTOPUOMI_V2-1.158        0.0235805          2.39154          90.2169       NO       
       P000524_A_1-NOSTOPUOMI_V2-1.159      8.68951E-06          2.79153          169.614       NO       
       P000524_A_1-NOSTOPUOMI_V2-1.160       1.3621E-05          2.35806          174.085       NO       
       P000524_A_1-NOSTOPUOMI_V2-1.161      1.90518E-06          4.94497          174.271       NO       
       P000524_A_1-NOSTOPUOMI_V2-1.162      2.64247E-06          5.35023          176.082       NO       
       P000524_A_1-NOSTOPUOMI_V2-1.163      7.97416E-06          2.95892          163.793       NO       
       P000524_A_1-NOSTOPUOMI_V2-1.164      2.66929E-06          4.30977          174.147       NO       
       P000524_A_1-NOSTOPUOMI_V2-1.165        0.0977506           5.5012          90.4738       NO       
       P000524_A_1-NOSTOPUOMI_V2-1.166      2.07732E-05          3.05391          172.002       NO       
       P000524_A_1-NOSTOPUOMI_V2-1.167      0.000305307          10.2535          100.007       NO       
       P000524_A_1-NOSTOPUOMI_V2-1.168      1.30552E-05          4.66294          175.094       NO       
       P000524_A_1-NOSTOPUOMI_V2-1.169        0.0554205          3.38616          92.2552       NO       
       P000524_A_1-NOSTOPUOMI_V2-1.170       0.00256797           7.2241           168.26       NO       
       P000524_A_1-NOSTOPUOMI_V2-1.171      1.81664E-06          4.39099          174.219       NO       
       P000524_A_1-NOSTOPUOMI_V2-1.172      4.45478E-06          2.63697           175.81       NO       
       P000524_A_1-NOSTOPUOMI_V2-1.174       0.00653873          7.34783          169.376       NO       
       P000524_A_1-NOSTOPUOMI_V2-1.176        0.0063886          38.8473          90.3601       NO       
       P000524_A_1-NOSTOPUOMI_V2-1.177      5.76197E-06          3.79381          136.142       NO       
       P000524_A_1-NOSTOPUOMI_V2-1.178        0.0429834          3.88961          92.1937       NO       
       P000524_A_1-NOSTOPUOMI_V2-1.179        0.0734501          3.84605          91.7088       NO       
       P000524_A_1-NOSTOPUOMI_V2-1.180        0.0734501          3.86481          91.6143       NO       
       P000524_A_1-NOSTOPUOMI_V2-1.181        0.0416846          3.64945              90.       NO       
       P000524_A_1-NOSTOPUOMI_V2-1.182      4.78223E-06          2.46758          176.323       NO       
       P000524_A_1-NOSTOPUOMI_V2-1.183        0.0730973          3.59399          91.4705       NO       
       P000524_A_1-NOSTOPUOMI_V2-1.186       0.00230404          18.3086          111.759       NO       
       P000524_A_1-NOSTOPUOMI_V2-1.189      0.000330583          39.7187          157.859       NO       
       P000524_A_1-NOSTOPUOMI_V2-1.190       0.00319431          28.6747          112.515       NO       
       P000524_A_1-NOSTOPUOMI_V2-1.191        0.0229864          4.34339          91.9945       NO       
       P000524_A_1-NOSTOPUOMI_V2-1.192        0.0031873          28.7204          112.489       NO       
       P000524_A_1-NOSTOPUOMI_V2-1.193        0.0188974           6.1705          166.403       NO       
       P000524_A_1-NOSTOPUOMI_V2-1.194      3.23487E-05          5.06224          173.907       NO       
       P000524_A_1-NOSTOPUOMI_V2-1.195      0.000347642          6.87984          129.719       NO       
       P000524_A_1-NOSTOPUOMI_V2-1.197       0.00440128          10.9434           157.31       NO       
       P000524_A_1-NOSTOPUOMI_V2-1.198      0.000840065          15.2536          166.759       NO       
       P000524_A_1-NOSTOPUOMI_V2-1.199      5.51184E-07          2.16914          151.213       NO       
       P000524_A_1-NOSTOPUOMI_V2-1.203       0.00206026          10.6613          116.469       NO       
       P000524_A_1-NOSTOPUOMI_V2-1.204       6.4273E-06          2.26739          176.273       NO       
       P000524_A_1-NOSTOPUOMI_V2-1.205      5.53901E-05          5.89517           172.09       NO       
       P000524_A_1-NOSTOPUOMI_V2-1.208      0.000173162          5.37747          111.627       NO       
       P000524_A_1-NOSTOPUOMI_V2-1.209       0.00538959          22.3894          157.263       NO       
       P000524_A_1-NOSTOPUOMI_V2-1.210      0.000334882          8.20445          164.746       NO       
       P000524_A_1-NOSTOPUOMI_V2-1.211      1.75277E-06          2.90017          173.932       NO       
       P000524_A_1-NOSTOPUOMI_V2-1.214      0.000154841          50.2813          163.237       NO       
       P000524_A_1-NOSTOPUOMI_V2-1.215       0.00462951          8.54628          102.626       NO       
       P000524_A_1-NOSTOPUOMI_V2-1.216        0.0379332          5.58092              90.       NO       
       P000524_A_1-NOSTOPUOMI_V2-1.217       0.00319879          1.69301          112.501       NO       
       P000524_A_1-NOSTOPUOMI_V2-1.218       0.00638109          2.21093          112.497       NO       
       P000524_A_1-NOSTOPUOMI_V2-1.219       0.00638585          38.8915              90.       NO       
       P000524_A_1-NOSTOPUOMI_V2-1.220       0.00318729          28.7138          112.499       NO       
       P000524_A_1-NOSTOPUOMI_V2-1.221      0.000305307          9.63642          99.2529       NO       
       P000524_A_1-NOSTOPUOMI_V2-1.222       2.5404E-06           2.3308          134.584       NO       
       P000524_A_1-NOSTOPUOMI_V2-1.223        0.0031988          1.69301          112.501       NO       
       P000524_A_1-NOSTOPUOMI_V2-1.224       0.00639311          38.8654          89.6399       NO       
       P000524_A_1-NOSTOPUOMI_V2-1.225       0.00638586          38.8236          90.4516       NO       
       P000524_A_1-NOSTOPUOMI_V2-1.226        0.0392635          2.69434          90.0442       NO       
       P000524_A_1-NOSTOPUOMI_V2-1.227        0.0412307          3.57383          90.0442       NO       
       P000524_A_1-NOSTOPUOMI_V2-1.228        0.0362104          4.24731          92.4546       NO       
       P000524_A_1-NOSTOPUOMI_V2-1.229      5.55491E-06          2.27524          176.298       NO       
       P000524_A_1-NOSTOPUOMI_V2-1.230        0.0063886          2.29748          106.298       NO       
       P000524_A_1-NOSTOPUOMI_V2-1.231       0.00637544           2.2983           106.32       NO       
       P000524_A_1-NOSTOPUOMI_V2-1.232       0.00318729          28.7139          112.499       NO       
       P000524_A_1-NOSTOPUOMI_V2-1.233       0.00317986          28.7408          112.471       NO       
       P000524_A_1-NOSTOPUOMI_V2-1.234        0.0392635          3.63262          90.9411       NO       
       P000524_A_1-NOSTOPUOMI_V2-1.235       0.00319677          28.6912          112.501       NO       
       P000524_A_1-NOSTOPUOMI_V2-1.236        0.0437067          3.86364          92.1589       NO       
       P000524_A_1-NOSTOPUOMI_V2-1.237        0.0769852          3.67822          91.4377       NO       
       P000524_A_1-NOSTOPUOMI_V2-1.238        0.0031943          28.6747          112.515       NO       
       P000524_A_1-NOSTOPUOMI_V2-1.239       0.00319879          1.69301          112.501       NO       
       P000524_A_1-NOSTOPUOMI_V2-1.240       0.00319983          1.69336          112.499       NO       
       P000524_A_1-NOSTOPUOMI_V2-1.241       0.00319292          28.6754          112.497       NO       
       P000524_A_1-NOSTOPUOMI_V2-1.242        0.0412132          3.64367          92.2883       NO       
       P000524_A_1-NOSTOPUOMI_V2-1.243        0.0063886          2.29748          106.298       NO       
       P000524_A_1-NOSTOPUOMI_V2-1.244        0.0926166          4.33294          91.3163       NO       
       P000524_A_1-NOSTOPUOMI_V2-1.245        0.0277124          4.43541          93.0476       NO       
       P000524_A_1-NOSTOPUOMI_V2-1.246        0.0031943          28.6747          112.515       NO       
       P000524_A_1-NOSTOPUOMI_V2-1.247        0.0063886          38.8473          90.3601       NO       
       P000524_A_1-NOSTOPUOMI_V2-1.248        0.0063931          38.8263          89.7354       NO       
       P000524_A_1-NOSTOPUOMI_V2-1.249       0.00319292          28.6754          112.497       NO       
       P000524_A_1-NOSTOPUOMI_V2-1.250       0.00319879          1.69301          112.501       NO       
       P000524_A_1-NOSTOPUOMI_V2-1.251       0.00638586          38.8236          90.4516       NO       
       P000524_A_1-NOSTOPUOMI_V2-1.252       0.00639312          38.8654          89.6399       NO       
       P000524_A_1-NOSTOPUOMI_V2-1.253       0.00319293          28.6754          112.497       NO       
       P000524_A_1-NOSTOPUOMI_V2-1.254       0.00638744          2.29817          106.296       NO       
       P000524_A_1-NOSTOPUOMI_V2-1.255       0.00638861          2.29748          106.298       NO       
       P000524_A_1-NOSTOPUOMI_V2-1.256        0.0031988          1.69301          112.501       NO       
       P000524_A_1-NOSTOPUOMI_V2-1.257       0.00638743          2.29817          106.296       NO       
       P000524_A_1-NOSTOPUOMI_V2-1.258       0.00319292          28.6754          112.497       NO       
       P000524_A_1-NOSTOPUOMI_V2-1.259        0.0277124          4.25434          93.0046       NO       
       P000524_A_1-NOSTOPUOMI_V2-1.260       0.00639354          38.8628          89.5484       NO       
       P000524_A_1-NOSTOPUOMI_V2-1.261      6.40854E-06          2.53291          175.618       NO       
       P000524_A_1-NOSTOPUOMI_V2-1.262       0.00319431          28.6747          112.515       NO       
       P000524_A_1-NOSTOPUOMI_V2-1.263       0.00319431          28.6747          112.515       NO       
       P000524_A_1-NOSTOPUOMI_V2-1.264        0.0063886          38.8474          90.3235       NO       
       P000524_A_1-NOSTOPUOMI_V2-1.265      0.000539026          5.52575          156.342       NO       
       P000524_A_1-NOSTOPUOMI_V2-1.266        0.0078765          5.34516          93.7568       NO       
       P000524_A_1-NOSTOPUOMI_V2-1.267      2.19251E-05          1.77538           167.12       NO       
       P000524_A_1-NOSTOPUOMI_V2-1.268       0.00319655          28.6769          112.548       NO       
       P000524_A_1-NOSTOPUOMI_V2-1.269      1.06134E-06          2.65637          113.798       NO       
       P000524_A_1-NOSTOPUOMI_V2-1.270        0.0152889          28.7783          112.553       NO       
       P000524_A_1-NOSTOPUOMI_V2-1.271        0.0031943          28.7008          112.508       NO       
       P000524_A_1-NOSTOPUOMI_V2-1.272        0.0100604          28.6933          112.552       NO       
       P000524_A_1-NOSTOPUOMI_V2-1.273        0.0031943          1.69349          112.499       NO       
       P000524_A_1-NOSTOPUOMI_V2-1.274      4.91804E-07          1.90412          165.503       NO       
       P000524_A_1-NOSTOPUOMI_V2-1.275      1.57241E-05          9.78702          170.541       NO       
       P000524_A_1-NOSTOPUOMI_V2-1.276       0.00318729          28.7204          112.489       NO       
       P000524_A_1-NOSTOPUOMI_V2-1.277        0.0163309          28.7859          112.535       NO       
       P000524_A_1-NOSTOPUOMI_V2-1.278       0.00319676          28.6933          112.518       NO       
       P000524_A_1-NOSTOPUOMI_V2-1.279      4.54553E-07          2.21258          122.877       NO       
       P000524_A_1-NOSTOPUOMI_V2-1.280        0.0031943          1.69349          112.499       NO       
       P000524_A_1-NOSTOPUOMI_V2-1.281       0.00506957          1.90271           147.35       NO       
       P000524_A_1-NOSTOPUOMI_V2-1.282        0.0031943          28.6747          112.515       NO       
       P000524_A_1-NOSTOPUOMI_V2-1.283       0.00319656           28.677          112.548       NO       
       P000524_A_1-NOSTOPUOMI_V2-1.284        0.0031873          28.7204          112.489       NO       
       P000524_A_1-NOSTOPUOMI_V2-1.285       0.00319292          28.6754          112.497       NO       
       P000524_A_1-NOSTOPUOMI_V2-1.286       0.00319676          28.6933          112.518       NO       
       P000524_A_1-NOSTOPUOMI_V2-1.287       0.00319879          1.69301          112.501       NO       
       P000524_A_1-NOSTOPUOMI_V2-1.288       0.00319431          1.69349          112.499       NO       
       P000524_A_1-NOSTOPUOMI_V2-1.289       0.00506958          1.90271           147.35       NO       
       P000524_A_1-NOSTOPUOMI_V2-1.290        0.0031943          28.6747          112.515       NO       
       P000524_A_1-NOSTOPUOMI_V2-1.291          0.07815          3.96038          91.5743       NO       
       P000524_A_1-NOSTOPUOMI_V2-1.292       0.00637458          38.8383          90.8845       NO       
       P000524_A_1-NOSTOPUOMI_V2-1.293        0.0420673          3.73429              90.       NO       
       P000524_A_1-NOSTOPUOMI_V2-1.294       0.00319292          28.6754          112.497       NO       
       P000524_A_1-NOSTOPUOMI_V2-1.295       0.00319676          28.6933          112.518       NO       
       P000524_A_1-NOSTOPUOMI_V2-1.296        0.0031988          1.69301          112.501       NO       
       P000524_A_1-NOSTOPUOMI_V2-1.297        0.0031873          28.7204          112.489       NO       
       P000524_A_1-NOSTOPUOMI_V2-1.298       0.00506957          1.90271           147.35       NO       
       P000524_A_1-NOSTOPUOMI_V2-1.299       0.00319431          28.6747          112.515       NO       
       P000524_A_1-NOSTOPUOMI_V2-1.300        0.0063931          38.8654          89.6399       NO       
       P000524_A_1-NOSTOPUOMI_V2-1.301       0.00318729          28.7204          112.489       NO       
       P000524_A_1-NOSTOPUOMI_V2-1.302       0.00318337          1.69348          112.501       NO       
       P000524_A_1-NOSTOPUOMI_V2-1.303       0.00319292          28.6754          112.497       NO       
       P000524_A_1-NOSTOPUOMI_V2-1.304       0.00319676          28.6933          112.518       NO       
       P000524_A_1-NOSTOPUOMI_V2-1.305       0.00319879          1.69301          112.501       NO       
       P000524_A_1-NOSTOPUOMI_V2-1.306       0.00506957          1.90271           147.35       NO       
       P000524_A_1-NOSTOPUOMI_V2-1.307        0.0031943          1.69349          112.499       NO       
       P000524_A_1-NOSTOPUOMI_V2-1.308        0.0031943          1.69349          112.499       NO       
       P000524_A_1-NOSTOPUOMI_V2-1.309        0.0031943          28.6747          112.515       NO       
       P000524_A_1-NOSTOPUOMI_V2-1.310        0.0282209          4.50749           92.954       NO       
       P000524_A_1-NOSTOPUOMI_V2-1.311        0.0282209          4.14091          93.0357       NO       
       P000524_A_1-NOSTOPUOMI_V2-1.312       0.00319292          28.6754          112.497       NO       
       P000524_A_1-NOSTOPUOMI_V2-1.313       0.00319676          28.6933          112.518       NO       
       P000524_A_1-NOSTOPUOMI_V2-1.314       0.00319879          1.69301          112.501       NO       
       P000524_A_1-NOSTOPUOMI_V2-1.315       0.00506957          1.90271           147.35       NO       
       P000524_A_1-NOSTOPUOMI_V2-1.316        0.0031943          28.6747          112.515       NO       
       P000524_A_1-NOSTOPUOMI_V2-1.317       0.00319431          28.6747          112.515       NO       
       P000524_A_1-NOSTOPUOMI_V2-1.318        0.0031943          1.69349          112.499       NO       
       P000524_A_1-NOSTOPUOMI_V2-1.319        0.0125839          7.14402           165.82       NO       
       P000524_A_1-NOSTOPUOMI_V2-1.320       0.00319292          28.6754          112.497       NO       
       P000524_A_1-NOSTOPUOMI_V2-1.321       0.00631817          10.7072          159.139       NO       
       P000524_A_1-NOSTOPUOMI_V2-1.322       0.00319677          28.6933          112.518       NO       
       P000524_A_1-NOSTOPUOMI_V2-1.323       0.00318729          28.7204          112.489       NO       
       P000524_A_1-NOSTOPUOMI_V2-1.324       0.00506958          1.90271           147.35       NO       
       P000524_A_1-NOSTOPUOMI_V2-1.325       0.00462951          6.04146          94.6879       NO       
       P000524_A_1-NOSTOPUOMI_V2-1.326        0.0031873          28.7204          112.489       NO       
       P000524_A_1-NOSTOPUOMI_V2-1.327        0.0031873          28.7204          112.489       NO       
       P000524_A_1-NOSTOPUOMI_V2-1.328       0.00319293          28.6754          112.497       NO       
       P000524_A_1-NOSTOPUOMI_V2-1.329       0.00319677          28.6933          112.518       NO       
       P000524_A_1-NOSTOPUOMI_V2-1.330        0.0031988          1.69301          112.501       NO       
       P000524_A_1-NOSTOPUOMI_V2-1.331       0.00506958          1.90271           147.35       NO       
       P000524_A_1-NOSTOPUOMI_V2-1.332       0.00319292          28.6754          112.497       NO       
       P000524_A_1-NOSTOPUOMI_V2-1.334      5.49675E-07          1.69304          124.535       NO       
       P000524_A_1-NOSTOPUOMI_V2-1.335        0.0379332          5.04245          90.9375       NO       
       P000524_A_1-NOSTOPUOMI_V2-1.336        0.0575002           6.8292          96.6126       NO       
       P000524_A_1-NOSTOPUOMI_V2-1.337      3.65688E-05          4.99808          163.335       NO       
       P000524_A_1-NOSTOPUOMI_V2-1.338        0.0379332          5.04151          91.4481       NO       
       P000524_A_1-NOSTOPUOMI_V2-1.339       0.00318729          28.7204          112.489       NO       
       P000524_A_1-NOSTOPUOMI_V2-1.340        0.0379332          5.04151          91.4481       NO       
       P000524_A_1-NOSTOPUOMI_V2-1.341        0.0379332          5.58007              90.       NO       
       P000524_A_1-NOSTOPUOMI_V2-1.342        0.0378059          5.04245          90.9411       NO       
       P000524_A_1-NOSTOPUOMI_V2-1.343        0.0378059          2.39154          90.4029       NO       
       P000524_A_1-NOSTOPUOMI_V2-1.344        0.0379332          5.58007              90.       NO       
       P000524_A_1-NOSTOPUOMI_V2-1.345        0.0378056          2.38555          95.0415       NO       
       P000524_A_1-NOSTOPUOMI_V2-1.346        0.0379332          5.58092              90.       NO       
       P000524_A_1-NOSTOPUOMI_V2-1.347        0.0031943          28.6747          112.515       NO       
       P000524_A_1-NOSTOPUOMI_V2-1.348        0.0379332          2.39482              90.       NO       
       P000524_A_1-NOSTOPUOMI_V2-1.349        0.0379332          5.04245          90.9375       NO       
       P000524_A_1-NOSTOPUOMI_V2-1.350       0.00319879          1.69301          112.501       NO       
       P000524_A_1-NOSTOPUOMI_V2-1.351        0.0378059          5.57246          90.9411       NO       
       P000524_A_1-NOSTOPUOMI_V2-1.352        0.0379332          2.39482              90.       NO       
       P000524_A_1-NOSTOPUOMI_V2-1.353        0.0379327          2.38231          95.0346       NO       
       P000524_A_1-NOSTOPUOMI_V2-1.354        0.0379332          5.58092              90.       NO       
       P000524_A_1-NOSTOPUOMI_V2-1.355        0.0031873          28.7204          112.489       NO       
       P000524_A_1-NOSTOPUOMI_V2-1.356        0.0379332          2.39482              90.       NO       
       P000524_A_1-NOSTOPUOMI_V2-1.357       0.00494263          16.3246          147.316       NO       
       P000524_A_1-NOSTOPUOMI_V2-1.358        0.0379332          5.04245          90.9375       NO       
       P000524_A_1-NOSTOPUOMI_V2-1.359      0.000539026          9.29892           147.34       NO       
       P000524_A_1-NOSTOPUOMI_V2-1.360       0.00949097          6.33908          94.9017       NO       
       P000524_A_1-NOSTOPUOMI_V2-1.361        0.0031988          1.69301          112.501       NO       
       P000524_A_1-NOSTOPUOMI_V2-1.362       0.00319431          1.69349          112.499       NO       
       P000524_A_1-NOSTOPUOMI_V2-1.363        0.0050037          16.3253          147.328       NO       
       P000524_A_1-NOSTOPUOMI_V2-1.364         0.045113          3.63232          92.1808       NO       
       P000524_A_1-NOSTOPUOMI_V2-1.365        0.0847089          3.91312          91.3526       NO       
       P000524_A_1-NOSTOPUOMI_V2-1.366      1.08543E-05          2.95048          173.655       NO       
       P000524_A_1-NOSTOPUOMI_V2-1.367        0.0140029          5.98349          93.9497       NO       
       P000524_A_1-NOSTOPUOMI_V2-1.368      5.49544E-07          1.69294          124.537       NO       
       P000524_A_1-NOSTOPUOMI_V2-1.369        0.0163309          28.7859          112.535       NO       
       P000524_A_1-NOSTOPUOMI_V2-1.370        0.0100604          28.6933          112.552       NO       
       P000524_A_1-NOSTOPUOMI_V2-1.371      4.91741E-07          1.90406          165.503       NO       
       P000524_A_1-NOSTOPUOMI_V2-1.372        0.0379332          5.58007              90.       NO       
       P000524_A_1-NOSTOPUOMI_V2-1.373       0.00319292          28.6754          112.497       NO       
       P000524_A_1-NOSTOPUOMI_V2-1.374       0.00318729          28.7204          112.489       NO       
       P000524_A_1-NOSTOPUOMI_V2-1.375      4.54513E-07          2.21253          122.876       NO       
       P000524_A_1-NOSTOPUOMI_V2-1.376       0.00319676          28.6933          112.518       NO       
       P000524_A_1-NOSTOPUOMI_V2-1.377        0.0031943          28.6747          112.515       NO       
       P000524_A_1-NOSTOPUOMI_V2-1.378       0.00506957          1.90271           147.35       NO       
       P000524_A_1-NOSTOPUOMI_V2-1.379        0.0379332          2.39482              90.       NO       
       P000524_A_1-NOSTOPUOMI_V2-1.380       0.00319292          28.6754          112.497       NO       
       P000524_A_1-NOSTOPUOMI_V2-1.381       0.00318729          28.7204          112.489       NO       
       P000524_A_1-NOSTOPUOMI_V2-1.382       0.00319879          1.69301          112.501       NO       
       P000524_A_1-NOSTOPUOMI_V2-1.383       0.00319676          28.6933          112.518       NO       
       P000524_A_1-NOSTOPUOMI_V2-1.384        0.0031943          1.69349          112.499       NO       
       P000524_A_1-NOSTOPUOMI_V2-1.385       0.00506958          1.90271           147.35       NO       
       P000524_A_1-NOSTOPUOMI_V2-1.386      0.000441264          6.68174          163.713       NO       
       P000524_A_1-NOSTOPUOMI_V2-1.387        0.0379332          5.04151          91.4481       NO       
       P000524_A_1-NOSTOPUOMI_V2-1.388       0.00319292          28.6754          112.497       NO       
       P000524_A_1-NOSTOPUOMI_V2-1.389        0.0031988          1.69301          112.501       NO       
       P000524_A_1-NOSTOPUOMI_V2-1.390        0.0031873          28.7204          112.489       NO       
       P000524_A_1-NOSTOPUOMI_V2-1.391       0.00319676          28.6933          112.518       NO       
       P000524_A_1-NOSTOPUOMI_V2-1.392       0.00319431          28.7008          112.508       NO       
       P000524_A_1-NOSTOPUOMI_V2-1.393       0.00506957          1.90271           147.35       NO       
       P000524_A_1-NOSTOPUOMI_V2-1.394       0.00319431          28.6747          112.515       NO       
       P000524_A_1-NOSTOPUOMI_V2-1.395        0.0379331          5.58092              90.       NO       
       P000524_A_1-NOSTOPUOMI_V2-1.396        0.0379332          2.39482              90.       NO       
       P000524_A_1-NOSTOPUOMI_V2-1.397       0.00319879          1.69301          112.501       NO       
       P000524_A_1-NOSTOPUOMI_V2-1.398       0.00319879          1.69301          112.501       NO       
       P000524_A_1-NOSTOPUOMI_V2-1.399        0.0031873          28.7204          112.489       NO       
       P000524_A_1-NOSTOPUOMI_V2-1.400        0.0379332          5.58007              90.       NO       
       P000524_A_1-NOSTOPUOMI_V2-1.401        0.0156614          17.1029          102.345       NO       
       P000524_A_1-NOSTOPUOMI_V2-1.402       0.00319292          28.6754          112.497       NO       
       P000524_A_1-NOSTOPUOMI_V2-1.403       0.00506957          1.90271           147.35       NO       
       P000524_A_1-NOSTOPUOMI_V2-1.404        0.0031943          1.69349          112.499       NO       
       P000524_A_1-NOSTOPUOMI_V2-1.405       0.00319292          28.6754          112.497       NO       
       P000524_A_1-NOSTOPUOMI_V2-1.406        0.0378059          5.57246          90.9411       NO       
       P000524_A_1-NOSTOPUOMI_V2-1.407       0.00319676          28.6933          112.518       NO       
       P000524_A_1-NOSTOPUOMI_V2-1.408       0.00494262          16.3246          147.316       NO       
       P000524_A_1-NOSTOPUOMI_V2-1.409        0.0378059          5.57246          90.9411       NO       
       P000524_A_1-NOSTOPUOMI_V2-1.410       0.00319676          28.6933          112.518       NO       
       P000524_A_1-NOSTOPUOMI_V2-1.411        0.0050037          16.3253          147.328       NO       
       P000524_A_1-NOSTOPUOMI_V2-1.412       0.00506957          1.90271           147.35       NO       
       P000524_A_1-NOSTOPUOMI_V2-1.413       0.00319293          28.6754          112.497       NO       
       P000524_A_1-NOSTOPUOMI_V2-1.414       0.00318729          28.7204          112.489       NO       
       P000524_A_1-NOSTOPUOMI_V2-1.415       0.00319879          1.69301          112.501       NO       
       P000524_A_1-NOSTOPUOMI_V2-1.416       0.00319677          28.6933          112.518       NO       
       P000524_A_1-NOSTOPUOMI_V2-1.417        0.0358712          4.15133          92.5531       NO       
       P000524_A_1-NOSTOPUOMI_V2-1.418      0.000649671          7.91036          162.897       NO       
       P000524_A_1-NOSTOPUOMI_V2-1.419       0.00506958          1.90271           147.35       NO       
       P000524_A_1-NOSTOPUOMI_V2-1.420        0.0354216           3.3412          168.344       NO       
       P000524_A_1-NOSTOPUOMI_V2-1.421        0.0379332          5.58007              90.       NO       
       P000524_A_1-NOSTOPUOMI_V2-1.422      0.000139203          19.7247          155.091       NO       
       P000524_A_1-NOSTOPUOMI_V2-1.423         0.124822          5.82412          90.7766       NO       
       P000524_A_1-NOSTOPUOMI_V2-1.424        0.0031873          28.7204          112.489       NO       
       P000524_A_1-NOSTOPUOMI_V2-1.425        0.0031988          1.69301          112.501       NO       
       P000524_A_1-NOSTOPUOMI_V2-1.426       0.00319431          28.6747          112.515       NO       
       P000524_A_1-NOSTOPUOMI_V2-1.427        0.0050037          16.3253          147.328       NO       
       P000524_A_1-NOSTOPUOMI_V2-1.428        0.0379332          2.39482              90.       NO       
       P000524_A_1-NOSTOPUOMI_V2-1.429      5.91768E-06           2.2279          176.071       NO       
       P000524_A_1-NOSTOPUOMI_V2-1.430        0.0050037          16.3253          147.328       NO       
       P000524_A_1-NOSTOPUOMI_V2-1.431        0.0378059          5.04245          90.9411       NO       
       P000524_A_1-NOSTOPUOMI_V2-1.432       0.00319431          1.69349          112.499       NO       
       P000524_A_1-NOSTOPUOMI_V2-1.433        0.0379332          2.39482              90.       NO       
       P000524_A_1-NOSTOPUOMI_V2-1.434        0.0031988          1.69301          112.501       NO       
       P000524_A_1-NOSTOPUOMI_V2-1.435        0.0031943          1.69349          112.499       NO       
       P000524_A_1-NOSTOPUOMI_V2-1.436        0.0379332          2.39482              90.       NO       
       P000524_A_1-NOSTOPUOMI_V2-1.437        0.0379332          5.04151          91.4481       NO       
       P000524_A_1-NOSTOPUOMI_V2-1.438        0.0031943          28.6747          112.515       NO       
       P000524_A_1-NOSTOPUOMI_V2-1.439      5.51054E-07          2.16901          151.215       NO       
       P000524_A_1-NOSTOPUOMI_V2-1.441       0.00319292          28.6754          112.497       NO       
       P000524_A_1-NOSTOPUOMI_V2-1.442         0.044319          6.01063          92.2519       NO       
       P000524_A_1-NOSTOPUOMI_V2-1.443      5.74694E-06          2.39356          176.092       NO       
       P000524_A_1-NOSTOPUOMI_V2-1.444      6.25968E-06          2.30066          175.943       NO       
       P000524_A_1-NOSTOPUOMI_V2-1.445      5.97565E-06          2.39354          175.934       NO       
       P000524_A_1-NOSTOPUOMI_V2-1.446        0.0064741           8.0049          101.246       NO       
       P000524_A_1-NOSTOPUOMI_V2-1.447        0.0155207          6.27677          166.515       NO       
       P000524_A_1-NOSTOPUOMI_V2-1.448      0.000114732          4.46283          172.115       NO       
       P000524_A_1-NOSTOPUOMI_V2-1.449      3.69826E-05          3.73154          173.989       NO       
       P000524_A_1-NOSTOPUOMI_V2-1.450        0.0031873          28.7204          112.489       NO       
       P000524_A_1-NOSTOPUOMI_V2-1.451      1.59604E-05          2.97611          175.358       NO       
       P000524_A_1-NOSTOPUOMI_V2-1.452        0.0379332          5.58092              90.       NO       
       P000524_A_1-NOSTOPUOMI_V2-1.453        0.0379332          5.58007              90.       NO       
       P000524_A_1-NOSTOPUOMI_V2-1.454       0.00494262          16.3246          147.316       NO       
       P000524_A_1-NOSTOPUOMI_V2-1.455        0.0422791          6.06898          97.8269       NO       
       P000524_A_1-NOSTOPUOMI_V2-1.456      0.000173162          38.2447          163.237       NO       
       P000524_A_1-NOSTOPUOMI_V2-1.457       0.00319677          28.6933          112.518       NO       
       P000524_A_1-NOSTOPUOMI_V2-1.458        0.0472816          6.06898          95.5909       NO       
       P000524_A_1-NOSTOPUOMI_V2-1.461      6.65086E-06          2.61376          174.383       NO       
       P000524_A_1-NOSTOPUOMI_V2-1.462       0.00319677          28.6912          112.501       NO       
       P000524_A_1-NOSTOPUOMI_V2-1.464      6.24413E-06          2.39344          176.004       NO       
       P000524_A_1-NOSTOPUOMI_V2-1.465        0.0031943          28.6747          112.515       NO       
       P000524_A_1-NOSTOPUOMI_V2-1.466        0.0468837           3.6447           92.013       NO       
       P000524_A_1-NOSTOPUOMI_V2-1.467      6.52478E-05          3.80213          171.265       NO       
       P000524_A_1-NOSTOPUOMI_V2-1.468        0.0685216          3.85722          91.3496       NO       
       P000524_A_1-NOSTOPUOMI_V2-1.469        0.0031943          28.7007          112.508       NO       
       P000524_A_1-NOSTOPUOMI_V2-1.470       0.00319293          28.6883           112.53       NO       
       P000524_A_1-NOSTOPUOMI_V2-1.471        0.0147518          38.8828          89.5758       NO       
       P000524_A_1-NOSTOPUOMI_V2-1.472       0.00319983          1.69336          112.499       NO       
       P000524_A_1-NOSTOPUOMI_V2-1.473        0.0448286          3.71095          92.1075       NO       
       P000524_A_1-NOSTOPUOMI_V2-1.474       0.00638743          2.29817          106.296       NO       
       P000524_A_1-NOSTOPUOMI_V2-1.475       0.00506958          1.90271           147.35       NO       
       P000524_A_1-NOSTOPUOMI_V2-1.476        0.0400837          3.79479          90.9411       NO       
       P000524_A_1-NOSTOPUOMI_V2-1.477        0.0756422          3.76972          91.5053       NO       
       P000524_A_1-NOSTOPUOMI_V2-1.478      2.22149E-06          1.81596          177.018       NO       
       P000524_A_1-NOSTOPUOMI_V2-1.480      2.31022E-06          2.05241          176.967       NO       
       P000524_A_1-NOSTOPUOMI_V2-1.481       0.00319293          28.6882           112.53       NO       
       P000524_A_1-NOSTOPUOMI_V2-1.482       0.00319431          28.6747          112.515       NO       
       P000524_A_1-NOSTOPUOMI_V2-1.483        0.0031943          1.69349          112.499       NO       
       P000524_A_1-NOSTOPUOMI_V2-1.484        0.0712078          3.71093          91.5528       NO       
       P000524_A_1-NOSTOPUOMI_V2-1.485      5.50998E-05          5.85063          165.349       NO       
       P000524_A_1-NOSTOPUOMI_V2-1.487        0.0403931          3.78722          92.3312       NO       
       P000524_A_1-NOSTOPUOMI_V2-1.488      5.88201E-05          11.2975          171.796       NO       
       P000524_A_1-NOSTOPUOMI_V2-1.490       0.00319676          28.6933          112.518       NO       
       P000524_A_1-NOSTOPUOMI_V2-1.491        0.0063931          38.8654          89.6399       NO       
       P000524_A_1-NOSTOPUOMI_V2-1.492       0.00638109          2.21093          112.497       NO       
       P000524_A_1-NOSTOPUOMI_V2-1.493      2.29866E-06          3.97066          121.425       NO       
       P000524_A_1-NOSTOPUOMI_V2-1.494       0.00319292          28.6883           112.53       NO       
       P000524_A_1-NOSTOPUOMI_V2-1.495       0.00319677          28.6912          112.501       NO       
       P000524_A_1-NOSTOPUOMI_V2-1.496       0.00318729          28.7139          112.499       NO       
       P000524_A_1-NOSTOPUOMI_V2-1.497        0.0368368          3.99565          92.4992       NO       
       P000524_A_1-NOSTOPUOMI_V2-1.498      3.29264E-05           5.7879          166.718       NO       
       P000524_A_1-NOSTOPUOMI_V2-1.500        0.0358712          3.83397           92.551       NO       
       P000524_A_1-NOSTOPUOMI_V2-1.501       0.00319292          28.6754          112.497       NO       
       P000524_A_1-NOSTOPUOMI_V2-1.502       0.00319983          1.69336          112.499       NO       
       P000524_A_1-NOSTOPUOMI_V2-1.503       0.00319292          28.6754          112.497       NO       
       P000524_A_1-NOSTOPUOMI_V2-1.504       0.00637501          38.8477          90.8695       NO       
       P000524_A_1-NOSTOPUOMI_V2-1.505       0.00639311          38.8654          89.6399       NO       
       P000524_A_1-NOSTOPUOMI_V2-1.506        0.0927642          4.22956          91.4381       NO       
       P000524_A_1-NOSTOPUOMI_V2-1.507      5.66082E-06          2.46125          176.057       NO       
       P000524_A_1-NOSTOPUOMI_V2-1.508         0.031863          4.06563          92.7465       NO       
       P000524_A_1-NOSTOPUOMI_V2-1.509       0.00319879          1.69301          112.501       NO       
       P000524_A_1-NOSTOPUOMI_V2-1.510       0.00319293          28.6882           112.53       NO       
       P000524_A_1-NOSTOPUOMI_V2-1.511        0.0461923          3.72945          91.6199       NO       
       P000524_A_1-NOSTOPUOMI_V2-1.512       0.00319983          1.69337          112.499       NO       
       P000524_A_1-NOSTOPUOMI_V2-1.513      2.78028E-05          5.60791          106.023       NO       
       P000524_A_1-NOSTOPUOMI_V2-1.514        0.0878811          4.17341          91.5484       NO       
       P000524_A_1-NOSTOPUOMI_V2-1.515        0.0387534           5.5153          92.1926       NO       
       P000524_A_1-NOSTOPUOMI_V2-1.516      0.000330583           12.749          127.992       NO       
       P000524_A_1-NOSTOPUOMI_V2-1.519        0.0031988          1.69301          112.501       NO       
       P000524_A_1-NOSTOPUOMI_V2-1.520       0.00319879          1.69301          112.501       NO       
       P000524_A_1-NOSTOPUOMI_V2-1.521       0.00639354          38.8395          90.2461       NO       
       P000524_A_1-NOSTOPUOMI_V2-1.522       0.00319431          28.6747          112.515       NO       
       P000524_A_1-NOSTOPUOMI_V2-1.523      1.52563E-06          2.43938          133.946       NO       
       P000524_A_1-NOSTOPUOMI_V2-1.525        0.0150466          28.6943          112.618       NO       
       P000524_A_1-NOSTOPUOMI_V2-1.526       1.5766E-06          7.17036          175.805       NO       
       P000524_A_1-NOSTOPUOMI_V2-1.527       0.00319655          28.6769          112.548       NO       
       P000524_A_1-NOSTOPUOMI_V2-1.528       0.00494262          16.3246          147.316       NO       
       P000524_A_1-NOSTOPUOMI_V2-1.529       0.00903758          10.0113          158.531       NO       
       P000524_A_1-NOSTOPUOMI_V2-1.530       0.00977755          3.15728          170.155       NO       
       P000524_A_1-NOSTOPUOMI_V2-1.531      2.98968E-06          2.05996          172.655       NO       
       P000524_A_1-NOSTOPUOMI_V2-1.532      5.12354E-05          1.89895          176.087       NO       
       P000524_A_1-NOSTOPUOMI_V2-1.533      2.19251E-05          4.58126          173.486       NO       
       P000524_A_1-NOSTOPUOMI_V2-1.535       0.00319431          1.69349          112.499       NO       
       P000524_A_1-NOSTOPUOMI_V2-1.536       0.00319879          1.69301          112.501       NO       
       P000524_A_1-NOSTOPUOMI_V2-1.537       3.7669E-06          4.20212          136.243       NO       
       P000524_A_1-NOSTOPUOMI_V2-1.538       0.00639353          38.8395          90.2461       NO       
       P000524_A_1-NOSTOPUOMI_V2-1.539       0.00638524          2.21252          112.469       NO       
       P000524_A_1-NOSTOPUOMI_V2-1.540        0.0379332          5.04151          91.4481       NO       
       P000524_A_1-NOSTOPUOMI_V2-1.541        0.0236724          2.39482              90.       NO       
       P000524_A_1-NOSTOPUOMI_V2-1.543        0.0101098          2.39482          169.712       NO       
       P000524_A_1-NOSTOPUOMI_V2-1.544        0.0236724          2.35838          169.714       NO       
       P000524_A_1-NOSTOPUOMI_V2-1.545        0.0063931          38.8262          89.7354       NO       
       P000524_A_1-NOSTOPUOMI_V2-1.546       0.00638862          38.8263          90.3601       NO       
       P000524_A_1-NOSTOPUOMI_V2-1.548         0.006375          38.8477          90.8695       NO       
       P000524_A_1-NOSTOPUOMI_V2-1.549        0.0063931          38.8654          89.6399       NO       
       P000524_A_1-NOSTOPUOMI_V2-1.550       0.00319677          28.6912          112.501       NO       
       P000524_A_1-NOSTOPUOMI_V2-1.551        0.0031943          1.69349          112.499       NO       
       P000524_A_1-NOSTOPUOMI_V2-1.552        0.0236724          2.39482              90.       NO       
       P000524_A_1-NOSTOPUOMI_V2-1.553      0.000109278          5.14251          170.688       NO       
       P000524_A_1-NOSTOPUOMI_V2-1.555       0.00319293          28.6883           112.53       NO       
       P000524_A_1-NOSTOPUOMI_V2-1.556         0.010579          10.2877          159.984       NO       
       P000524_A_1-NOSTOPUOMI_V2-1.557       1.4464E-05          2.47704          174.502       NO       
       P000524_A_1-NOSTOPUOMI_V2-1.559       0.00637502          38.8477          90.8695       NO       
       P000524_A_1-NOSTOPUOMI_V2-1.560       0.00638585          38.8915              90.       NO       
       P000524_A_1-NOSTOPUOMI_V2-1.561         0.010579          10.2877          159.984       NO       
       P000524_A_1-NOSTOPUOMI_V2-1.562       0.00638586          38.8915              90.       NO       
       P000524_A_1-NOSTOPUOMI_V2-1.563        0.0236725          2.39482              90.       NO       
       P000524_A_1-NOSTOPUOMI_V2-1.564       0.00637979          2.29634          106.333       NO       
       P000524_A_1-NOSTOPUOMI_V2-1.566        0.0101098           10.008          159.446       NO       
       P000524_A_1-NOSTOPUOMI_V2-1.567        0.0236725          2.35838          169.714       NO       
       P000524_A_1-NOSTOPUOMI_V2-1.568        0.0101098           10.008          159.446       NO       
       P000524_A_1-NOSTOPUOMI_V2-1.570       0.00638525          2.21252          112.469       NO       
       P000524_A_1-NOSTOPUOMI_V2-1.571       0.00637458          38.8383          90.8845       NO       
       P000524_A_1-NOSTOPUOMI_V2-1.573       0.00638861          38.8473          90.3601       NO       
       P000524_A_1-NOSTOPUOMI_V2-1.574        0.0236725          2.39482              90.       NO       
       P000524_A_1-NOSTOPUOMI_V2-1.575      2.09819E-05          3.38242          170.873       NO       
       P000524_A_1-NOSTOPUOMI_V2-1.577         0.010579          10.2877          159.984       NO       
       P000524_A_1-NOSTOPUOMI_V2-1.578        0.0379332          5.04151          91.4481       NO       
       P000524_A_1-NOSTOPUOMI_V2-1.580       0.00638524          2.21252          112.469       NO       
       P000524_A_1-NOSTOPUOMI_V2-1.582        0.0101098           10.008          159.446       NO       
       P000524_A_1-NOSTOPUOMI_V2-1.583        0.0379332          2.39482              90.       NO       
       P000524_A_1-NOSTOPUOMI_V2-1.584        0.0236724          2.39482              90.       NO       
       P000524_A_1-NOSTOPUOMI_V2-1.585       0.00319879          1.69301          112.501       NO       
       P000524_A_1-NOSTOPUOMI_V2-1.587        0.0236724          2.35838          169.714       NO       
       P000524_A_1-NOSTOPUOMI_V2-1.588        0.0236724          2.35838          169.714       NO       
       P000524_A_1-NOSTOPUOMI_V2-1.589        0.0379332          5.58007              90.       NO       
       P000524_A_1-NOSTOPUOMI_V2-1.591        0.0031875          28.6371          112.625       NO       
       P000524_A_1-NOSTOPUOMI_V2-1.592       0.00319983          1.69337          112.499       NO       
       P000524_A_1-NOSTOPUOMI_V2-1.593        0.0031988          1.69301          112.501       NO       
       P000524_A_1-NOSTOPUOMI_V2-1.594        0.0031943          1.69349          112.499       NO       
       P000524_A_1-NOSTOPUOMI_V2-1.595        0.0236724          2.39482              90.       NO       
       P000524_A_1-NOSTOPUOMI_V2-1.596        0.0379332          5.04151          91.4481       NO       
       P000524_A_1-NOSTOPUOMI_V2-1.598         0.010579          10.2877          159.984       NO       
       P000524_A_1-NOSTOPUOMI_V2-1.600        0.0379327          2.38231          95.0346       NO       
       P000524_A_1-NOSTOPUOMI_V2-1.602       0.00637978          2.29634          106.333       NO       
       P000524_A_1-NOSTOPUOMI_V2-1.603        0.0031873          28.7204          112.489       NO       
       P000524_A_1-NOSTOPUOMI_V2-1.604        0.0236724          2.35838          169.714       NO       
       P000524_A_1-NOSTOPUOMI_V2-1.605        0.0031943          1.69349          112.499       NO       
       P000524_A_1-NOSTOPUOMI_V2-1.607        0.0236724          2.39482              90.       NO       
       P000524_A_1-NOSTOPUOMI_V2-1.608         0.010579          10.2877          159.984       NO       
       P000524_A_1-NOSTOPUOMI_V2-1.610        0.0379331          2.39482              90.       NO       
       P000524_A_1-NOSTOPUOMI_V2-1.611        0.0236724          2.35838          169.714       NO       
       P000524_A_1-NOSTOPUOMI_V2-1.614        0.0236724          2.39482              90.       NO       
       P000524_A_1-NOSTOPUOMI_V2-1.615       0.00638109          2.21093          112.497       NO       
       P000524_A_1-NOSTOPUOMI_V2-1.617      0.000742207           15.244          148.211       NO       
       P000524_A_1-NOSTOPUOMI_V2-1.618      1.66808E-05          4.58126          168.206       NO       
       P000524_A_1-NOSTOPUOMI_V2-1.619      9.12451E-06          8.39447          174.105       NO       
       P000524_A_1-NOSTOPUOMI_V2-1.621        0.0538858          5.06958          91.2943       NO       
       P000524_A_1-NOSTOPUOMI_V2-1.624         0.010579          10.2877          159.984       NO       
       P000524_A_1-NOSTOPUOMI_V2-1.625      5.33359E-06          2.46765          176.156       NO       
       P000524_A_1-NOSTOPUOMI_V2-1.626       0.00639353          38.8395          90.2461       NO       
       P000524_A_1-NOSTOPUOMI_V2-1.627       0.00637458          38.8383          90.8845       NO       
       P000524_A_1-NOSTOPUOMI_V2-1.629       0.00319676          28.6911          112.501       NO       
       P000524_A_1-NOSTOPUOMI_V2-1.631        0.0236724          2.39482              90.       NO       
       P000524_A_1-NOSTOPUOMI_V2-1.632         0.010579          10.2877          159.984       NO       
       P000524_A_1-NOSTOPUOMI_V2-1.635       0.00638861          38.8263          90.3601       NO       
       P000524_A_1-NOSTOPUOMI_V2-1.636        0.0379332          5.04245          90.9375       NO       
       P000524_A_1-NOSTOPUOMI_V2-1.637        0.0378059          2.39154          90.4029       NO       
       P000524_A_1-NOSTOPUOMI_V2-1.638      3.35865E-05           3.7416          171.989       NO       
       P000524_A_1-NOSTOPUOMI_V2-1.640        0.0236724          2.35838          169.714       NO       
       P000524_A_1-NOSTOPUOMI_V2-1.641       0.00319676          28.6933          112.518       NO       
       P000524_A_1-NOSTOPUOMI_V2-1.642        0.0236725          2.39482              90.       NO       
       P000524_A_1-NOSTOPUOMI_V2-1.643       0.00319676          28.6933          112.518       NO       
       P000524_A_1-NOSTOPUOMI_V2-1.644       0.00639353          38.8628          89.5484       NO       
       P000524_A_1-NOSTOPUOMI_V2-1.645       0.00319655          28.6769          112.548       NO       
       P000524_A_1-NOSTOPUOMI_V2-1.646         0.010579          10.2877          159.984       NO       
       P000524_A_1-NOSTOPUOMI_V2-1.647        0.0379332          5.04245          90.9375       NO       
       P000524_A_1-NOSTOPUOMI_V2-1.648        0.0101098          2.39482          169.712       NO       
       P000524_A_1-NOSTOPUOMI_V2-1.650       0.00319677          28.6912          112.501       NO       
       P000524_A_1-NOSTOPUOMI_V2-1.651       0.00638524          2.21252          112.469       NO       
       P000524_A_1-NOSTOPUOMI_V2-1.652        0.0236724          2.35838          169.714       NO       
       P000524_A_1-NOSTOPUOMI_V2-1.653       0.00638861          38.8474          90.3235       NO       
       P000524_A_1-NOSTOPUOMI_V2-1.654       8.6717E-05          3.56557          170.475       NO       
       P000524_A_1-NOSTOPUOMI_V2-1.656        0.0546881          4.86694          91.1075       NO       
       P000524_A_1-NOSTOPUOMI_V2-1.657        0.0236725          2.39482              90.       NO       
       P000524_A_1-NOSTOPUOMI_V2-1.658        0.0101098          2.39482          169.712       NO       
       P000524_A_1-NOSTOPUOMI_V2-1.661        0.0063886          38.8473          90.3601       NO       
       P000524_A_1-NOSTOPUOMI_V2-1.662        0.0101098           10.008          159.446       NO       
       P000524_A_1-NOSTOPUOMI_V2-1.664       0.00638525          2.21252          112.469       NO       
       P000524_A_1-NOSTOPUOMI_V2-1.665       0.00319983          1.69336          112.499       NO       
       P000524_A_1-NOSTOPUOMI_V2-1.667       0.00319431          1.69349          112.499       NO       
       P000524_A_1-NOSTOPUOMI_V2-1.668        0.0236725          2.39482              90.       NO       
       P000524_A_1-NOSTOPUOMI_V2-1.669        0.0101098          2.39482          169.712       NO       
       P000524_A_1-NOSTOPUOMI_V2-1.672       0.00319656          28.6747          112.515       NO       
       P000524_A_1-NOSTOPUOMI_V2-1.673        0.0236725          2.35838          169.714       NO       
       P000524_A_1-NOSTOPUOMI_V2-1.674       0.00874407          4.02564          155.566       NO       
       P000524_A_1-NOSTOPUOMI_V2-1.675       0.00619377          12.3296          111.324       NO       
       P000524_A_1-NOSTOPUOMI_V2-1.676         0.039857           9.2274          94.3351       NO       
       P000524_A_1-NOSTOPUOMI_V2-1.678       0.00742528          10.7315           159.71       NO       
       P000524_A_1-NOSTOPUOMI_V2-1.679      3.91773E-05          3.15429          168.085       NO       
       P000524_A_1-NOSTOPUOMI_V2-1.680        0.0236725          2.35838          169.714       NO       
       P000524_A_1-NOSTOPUOMI_V2-1.682       0.00319431          1.69349          112.499       NO       
       P000524_A_1-NOSTOPUOMI_V2-1.683       0.00638585          38.8237          90.4516       NO       
       P000524_A_1-NOSTOPUOMI_V2-1.684      8.68951E-06          2.39481          168.117       NO       
       P000524_A_1-NOSTOPUOMI_V2-1.685        0.0031873          28.7204          112.489       NO       
       P000524_A_1-NOSTOPUOMI_V2-1.687       0.00790284          10.2877          159.292       NO       
       P000524_A_1-NOSTOPUOMI_V2-1.689      0.000873445          10.2877          99.6193       NO       
       P000524_A_1-NOSTOPUOMI_V2-1.690       0.00319677          28.6911          112.501       NO       
       P000524_A_1-NOSTOPUOMI_V2-1.691       0.00319431          1.69349          112.499       NO       
       P000524_A_1-NOSTOPUOMI_V2-1.692       0.00639312          38.8654          89.6399       NO       
       P000524_A_1-NOSTOPUOMI_V2-1.693        0.0407156           3.5016              90.       NO       
       P000524_A_1-NOSTOPUOMI_V2-1.694        0.0050037          16.3253          147.328       NO       
       P000524_A_1-NOSTOPUOMI_V2-1.695      4.90333E-06          2.39357          176.426       NO       
       P000524_A_1-NOSTOPUOMI_V2-1.696        0.0379332          2.39482              90.       NO       
       P000524_A_1-NOSTOPUOMI_V2-1.697        0.0379332          5.04245          90.9375       NO       
       P000524_A_1-NOSTOPUOMI_V2-1.698        0.0379332          5.58007              90.       NO       
       P000524_A_1-NOSTOPUOMI_V2-1.699       0.00393511          3.32457          171.837       NO       
       P000524_A_1-NOSTOPUOMI_V2-1.700       0.00500369          16.3253          147.328       NO       
       P000524_A_1-NOSTOPUOMI_V2-1.701       0.00500371          16.3253          147.328       NO       
       P000524_A_1-NOSTOPUOMI_V2-1.702        0.0379332          5.04245          90.9375       NO       
       P000524_A_1-NOSTOPUOMI_V2-1.703        0.0379332          5.04151          91.4481       NO       
       P000524_A_1-NOSTOPUOMI_V2-1.704        0.0378059          5.57246          90.9411       NO       
       P000524_A_1-NOSTOPUOMI_V2-1.705        0.0379332          5.58007              90.       NO       
       P000524_A_1-NOSTOPUOMI_V2-1.706        0.0379331          5.04245          90.9375       NO       
       P000524_A_1-NOSTOPUOMI_V2-1.707         0.010579          10.2877          159.984       NO       
       P000524_A_1-NOSTOPUOMI_V2-1.708        0.0379332          5.04245          90.9375       NO       
       P000524_A_1-NOSTOPUOMI_V2-1.709        0.0379331          5.58092              90.       NO       
       P000524_A_1-NOSTOPUOMI_V2-1.710        0.0379332          5.58007              90.       NO       
       P000524_A_1-NOSTOPUOMI_V2-1.711      6.03921E-06          2.39484          175.053       NO       
       P000524_A_1-NOSTOPUOMI_V2-1.712       0.00319431          1.69349          112.499       NO       
       P000524_A_1-NOSTOPUOMI_V2-1.713        0.0379332          5.04152          91.4481       NO       
       P000524_A_1-NOSTOPUOMI_V2-1.714        0.0379332          5.58007              90.       NO       
       P000524_A_1-NOSTOPUOMI_V2-1.715        0.0101098           10.008          159.446       NO       
       P000524_A_1-NOSTOPUOMI_V2-1.716      1.78235E-07          1.27051          163.613       NO       
       P000524_A_1-NOSTOPUOMI_V2-1.718       0.00494262          16.3246          147.316       NO       
       P000524_A_1-NOSTOPUOMI_V2-1.719       0.00494262          16.3246          147.316       NO       
       P000524_A_1-NOSTOPUOMI_V2-1.723       0.00494262          16.3246          147.316       NO       
       P000524_A_1-NOSTOPUOMI_V2-1.724        0.0379332          2.39482              90.       NO       
       P000524_A_1-NOSTOPUOMI_V2-1.725      0.000293782          9.73091          163.585       NO       
       P000524_A_1-NOSTOPUOMI_V2-1.726        0.0378059          5.03464          93.3198       NO       
       P000524_A_1-NOSTOPUOMI_V2-1.728       0.00500371          16.3253          147.328       NO       
       P000524_A_1-NOSTOPUOMI_V2-1.729      6.03921E-06          2.05266          174.557       NO       
       P000524_A_1-NOSTOPUOMI_V2-1.730        0.0379332          5.04151          91.4481       NO       
       P000524_A_1-NOSTOPUOMI_V2-1.732        0.0412307          2.69434              90.       NO       
       P000524_A_1-NOSTOPUOMI_V2-1.733        0.0437067          3.56679          92.1733       NO       
       P000524_A_1-NOSTOPUOMI_V2-1.734        0.0050037          16.3253          147.328       NO       
       P000524_A_1-NOSTOPUOMI_V2-1.735        0.0050037          16.3253          147.328       NO       
       P000524_A_1-NOSTOPUOMI_V2-1.736      5.28354E-06           2.6432          175.883       NO       
       P000524_A_1-NOSTOPUOMI_V2-1.737        0.0379332          2.39482              90.       NO       
       P000524_A_1-NOSTOPUOMI_V2-1.738        0.0050037          16.3253          147.328       NO       
       P000524_A_1-NOSTOPUOMI_V2-1.739        0.0379332          5.04245          90.9375       NO       
       P000524_A_1-NOSTOPUOMI_V2-1.740        0.0414817          3.93412          92.2035       NO       
       P000524_A_1-NOSTOPUOMI_V2-1.741        0.0372405          4.10842          92.4818       NO       
       P000524_A_1-NOSTOPUOMI_V2-1.742       0.00494262          16.3246          147.316       NO       
       P000524_A_1-NOSTOPUOMI_V2-1.743      6.18207E-06          2.86209          175.452       NO       
       P000524_A_1-NOSTOPUOMI_V2-1.744        0.0031943          28.7007          112.508       NO       
       P000524_A_1-NOSTOPUOMI_V2-1.745      5.85289E-06          2.59544          176.132       NO       
       P000524_A_1-NOSTOPUOMI_V2-1.746      3.29359E-05          2.41016          174.207       NO       
       P000524_A_1-NOSTOPUOMI_V2-1.747       0.00638861          38.8263          90.3601       NO       
       P000524_A_1-NOSTOPUOMI_V2-1.748       0.00319676          28.6933          112.518       NO       
       P000524_A_1-NOSTOPUOMI_V2-1.750      6.08665E-06          2.32709          176.218       NO       
       P000524_A_1-NOSTOPUOMI_V2-1.751       0.00639354          38.8395          90.2461       NO       
       P000524_A_1-NOSTOPUOMI_V2-1.752        0.0101098           10.008          159.446       NO       
       P000524_A_1-NOSTOPUOMI_V2-1.753       0.00319292          28.6754          112.497       NO       
       P000524_A_1-NOSTOPUOMI_V2-1.754        0.0101098           10.008          159.446       NO       
       P000524_A_1-NOSTOPUOMI_V2-1.755        0.0405692          3.70635          92.8199       NO       
       P000524_A_1-NOSTOPUOMI_V2-1.756      6.44885E-06          2.32706          176.117       NO       
       P000524_A_1-NOSTOPUOMI_V2-1.757        0.0063886          38.8263          90.3601       NO       
       P000524_A_1-NOSTOPUOMI_V2-1.758       0.00637501          38.8477          90.8695       NO       
       P000524_A_1-NOSTOPUOMI_V2-1.759        0.0101098           10.008          159.446       NO       
       P000524_A_1-NOSTOPUOMI_V2-1.760       0.00638524          2.21252          112.469       NO       
       P000524_A_1-NOSTOPUOMI_V2-1.761       0.00319655          28.6747          112.515       NO       
       P000524_A_1-NOSTOPUOMI_V2-1.762        0.0236724          2.35838          169.714       NO       
       P000524_A_1-NOSTOPUOMI_V2-1.763        0.0378056          2.38555          95.0415       NO       
       P000524_A_1-NOSTOPUOMI_V2-1.764        0.0031943          28.7008          112.508       NO       
       P000524_A_1-NOSTOPUOMI_V2-1.765        0.0148298          11.1745          96.3057       NO       
       P000524_A_1-NOSTOPUOMI_V2-1.766       0.00638524          2.21252          112.469       NO       
       P000524_A_1-NOSTOPUOMI_V2-1.767        0.0063886            2.212          112.458       NO       
       P000524_A_1-NOSTOPUOMI_V2-1.768       0.00638862          38.8263          90.3601       NO       
       P000524_A_1-NOSTOPUOMI_V2-1.769        0.0031943          28.7048          112.499       NO       
       P000524_A_1-NOSTOPUOMI_V2-1.770        0.0363553          4.05027          92.5393       NO       
[...]
      P000524_A_1-NOSTOPUOMI_V2-1.4990      4.11239E-05          4.73483          171.177       NO       
      P000524_A_1-NOSTOPUOMI_V2-1.4991        9.087E-07          1.53666          176.518       NO       
      P000524_A_1-NOSTOPUOMI_V2-1.4992        0.0125404           31.096          143.208       NO       
      P000524_A_1-NOSTOPUOMI_V2-1.4994       4.7755E-06          1.90155          173.683       NO       
      P000524_A_1-NOSTOPUOMI_V2-1.4996      0.000129362           4.5642          167.029       NO       
      P000524_A_1-NOSTOPUOMI_V2-1.4998        0.0035903          7.64665          166.373       NO       
      P000524_A_1-NOSTOPUOMI_V2-1.5000        0.0642693          2.80348          108.811       NO       
      P000524_A_1-NOSTOPUOMI_V2-1.5002      7.90935E-05          10.8727          166.613       NO       
      P000524_A_1-NOSTOPUOMI_V2-1.5003       5.7162E-05          4.17963          166.306       NO       
      P000524_A_1-NOSTOPUOMI_V2-1.5004       3.3381E-05          4.49902           172.76       NO       
      P000524_A_1-NOSTOPUOMI_V2-1.5005       0.00029867          11.8089          160.979       NO       
      P000524_A_1-NOSTOPUOMI_V2-1.5006       0.00346118          16.2634          120.481       NO       
      P000524_A_1-NOSTOPUOMI_V2-1.5007       0.00619998          1.71759          176.164       NO       
      P000524_A_1-NOSTOPUOMI_V2-1.5008        0.0028162          8.13906          146.878       NO       
      P000524_A_1-NOSTOPUOMI_V2-1.5009        0.0090692          2.06066          157.453       NO       
      P000524_A_1-NOSTOPUOMI_V2-1.5011       0.00616714          9.61533          145.664       NO       
      P000524_A_1-NOSTOPUOMI_V2-1.5012      0.000359907          18.4627          135.147       NO       
      P000524_A_1-NOSTOPUOMI_V2-1.5013      5.62755E-06          32.0998          110.823       NO       
      P000524_A_1-NOSTOPUOMI_V2-1.5015      1.16007E-06          3.91988          176.199       NO       
      P000524_A_1-NOSTOPUOMI_V2-1.5017        0.0261922          2.27776          174.647       NO       
      P000524_A_1-NOSTOPUOMI_V2-1.5018      3.00182E-06          6.28004          175.532       NO       
      P000524_A_1-NOSTOPUOMI_V2-1.5019      5.47286E-05          4.18358           173.03       NO       
      P000524_A_1-NOSTOPUOMI_V2-1.5021      3.49693E-05          5.18873          172.984       NO       
      P000524_A_1-NOSTOPUOMI_V2-1.5022      1.17453E-06          8.90849          174.815       NO       
      P000524_A_1-NOSTOPUOMI_V2-1.5023      3.59579E-07          1.65666          122.797       NO       
      P000524_A_1-NOSTOPUOMI_V2-1.5025      4.14174E-05          9.49213          172.368       NO       
      P000524_A_1-NOSTOPUOMI_V2-1.5026        0.0006365          35.5384          154.265       NO       
      P000524_A_1-NOSTOPUOMI_V2-1.5028      0.000151556          6.57684          169.254       NO       
      P000524_A_1-NOSTOPUOMI_V2-1.5030      6.18479E-07          12.4008          139.051       NO       
      P000524_A_1-NOSTOPUOMI_V2-1.5033        0.0195118          12.9434          133.856       NO       
  
  
  *Step, name=Step-1, nlgeom=NO, perturbation
  *frequency, eigensolver=LANCZOS, normalization=MASS, sim=YES, acousticcoupling=ON
  *output, field, variable=PRESELECT
  *Step, name=matrix-step
  *Step, name=Step-1, nlgeom=NO, perturbation
  *Step, name=matrix-step
  *Step, name=Step-1, nlgeom=NO, perturbation
  *frequency, eigensolver=LANCZOS, normalization=MASS, sim=YES, acousticcoupling=ON
  *frequency, eigensolver=LANCZOS, normalization=MASS, sim=YES, acousticcoupling=ON
  *output, field, variable=PRESELECT
  *endstep
  *Step, name=matrix-step
  *matrixgenerate, stiffness, mass
  *matrixoutput, stiffness, format=COORDINATE, mass
  *endstep
  *Step, name=Step-1, nlgeom=NO, perturbation
  *frequency, eigensolver=LANCZOS, normalization=MASS, sim=YES, acousticcoupling=ON
  *frequency, eigensolver=LANCZOS, normalization=MASS, sim=YES, acousticcoupling=ON
  *endstep
  *Step, name=matrix-step
  *endstep



                            P R O B L E M   S I Z E


          NUMBER OF ELEMENTS IS                                  5033
          NUMBER OF NODES IS                                    10110
          NUMBER OF NODES DEFINED BY THE USER                   10110
          TOTAL NUMBER OF VARIABLES IN THE MODEL                30330
          (DEGREES OF FREEDOM PLUS MAX NO. OF ANY LAGRANGE MULTIPLIER
           VARIABLES. INCLUDE *PRINT,SOLVE=YES TO GET THE ACTUAL NUMBER.)



                              END OF USER INPUT PROCESSING



     JOB TIME SUMMARY
       USER TIME (SEC)      =  0.30000    
       SYSTEM TIME (SEC)    =  0.10000    
       TOTAL CPU TIME (SEC) =  0.40000    
       WALLCLOCK TIME (SEC) =          1
1

   Abaqus 2020                                  Date 26-touko-2023   Time 16:02:27
   For use by OULUN YLIOPISTO under license from Dassault Systemes or its subsidiary.

                                                                                               STEP    1  INCREMENT    1
                                                                                          TIME COMPLETED IN THIS STEP   0.00    


                        S T E P       1     C A L C U L A T I O N   O F   E I G E N V A L U E S

                                            F O R   N A T U R A L   F R E Q U E N C I E S



                                                                                          

     THE LANCZOS EIGENSOLVER IS USED FOR THIS ANALYSIS
     SYSTEM DATA WILL BE WRITTEN TO THE .SIM FILE

     Abaqus WILL COMPUTE UNCOUPLED
      STRUCTURAL AND ACOUSTIC MODES
     NUMBER OF EIGENVALUES                     15
     HIGHEST FREQUENCY OF INTEREST                  1.00000E+18
     MAXIMUM NUMBER OF STEPS WITHIN RUN               35
     BLOCK SIZE FOR LANCZOS PROCEDURE                  7
     THE EIGENVECTORS ARE SCALED SO THAT 
      THE GENERALIZED MASS IN EACH VECTOR IS UNITY

     THIS IS A LINEAR PERTURBATION STEP.
     ALL LOADS ARE DEFINED AS CHANGE IN LOAD TO THE REFERENCE STATE



                    TOTAL MASS OF MODEL

                       124.6599    


                    LOCATION OF THE CENTER OF MASS OF THE MODEL

                      0.9278016          4.2285294E-06     -3.1016033E-03


                    MOMENTS OF INERTIA ABOUT THE ORIGIN
                           I(XX)               I(YY)               I(ZZ)

                       1.167781           202.1410           202.2650    


                    PRODUCTS OF INERTIA ABOUT THE ORIGIN
                           I(XY)               I(XZ)               I(YZ)

                     -1.0702628E-03     -0.3381918         -3.2713355E-05


                    MOMENTS OF INERTIA ABOUT THE CENTER OF MASS
                           I(XX)               I(YY)               I(ZZ)

                       1.166581           94.83066           94.95579    


                    PRODUCTS OF INERTIA ABOUT THE CENTER OF MASS
                           I(XY)               I(XZ)               I(YZ)

                     -5.8119276E-04     -0.6969221         -3.4348296E-05
  
                   M E M O R Y   E S T I M A T E
  
 PROCESS      FLOATING PT       MINIMUM MEMORY        MEMORY TO
              OPERATIONS           REQUIRED          MINIMIZE I/O
             PER ITERATION           (MB)               (MB)
  
     1          1.75E+09               34                300
  
 NOTE:
      (1) SINCE ABAQUS DOES NOT PRE-ALLOCATE MEMORY AND ONLY ALLOCATES MEMORY AS NEEDED DURING THE ANALYSIS,
          THE MEMORY REQUIREMENT PRINTED HERE CAN ONLY BE VIEWED AS A GENERAL GUIDELINE BASED ON THE BEST
          KNOWLEDGE AVAILABLE AT THE BEGINNING OF A STEP BEFORE THE SOLUTION PROCESS HAS BEGUN.
      (2) THE ESTIMATE IS NORMALLY UPDATED AT THE BEGINNING OF EVERY STEP. IT IS THE MAXIMUM VALUE OF THE
          ESTIMATE FROM THE CURRENT STEP TO THE LAST STEP OF THE ANALYSIS, WITH UNSYMMETRIC SOLUTION TAKEN
          INTO ACCOUNT IF APPLICABLE. 
      (3) SINCE THE ESTIMATE IS BASED ON THE ACTIVE DEGREES OF FREEDOM IN THE FIRST ITERATION OF THE 
          CURRENT STEP, THE MEMORY ESTIMATE MIGHT BE SIGNIFICANTLY DIFFERENT THAN ACTUAL USAGE FOR 
          PROBLEMS WITH SUBSTANTIAL CHANGES IN ACTIVE DEGREES OF FREEDOM BETWEEN STEPS (OR EVEN WITHIN
          THE SAME STEP). EXAMPLES ARE: PROBLEMS WITH SIGNIFICANT CONTACT CHANGES, PROBLEMS WITH MODEL
          CHANGE, PROBLEMS WITH BOTH STATIC STEP AND STEADY STATE DYNAMIC PROCEDURES WHERE ACOUSTIC 
          ELEMENTS WILL ONLY BE ACTIVATED IN THE STEADY STATE DYNAMIC STEPS.
      (4) FOR MULTI-PROCESS EXECUTION, THE ESTIMATED VALUE OF FLOATING POINT OPERATIONS FOR EACH PROCESS
          IS BASED ON AN INITIAL SCHEDULING OF OPERATIONS AND MIGHT NOT REFLECT THE ACTUAL FLOATING 
          POINT OPERATIONS COMPLETED ON EACH PROCESS. OPERATIONS ARE DYNAMICALLY BALANCED DURING EXECUTION, 
          SO THE ACTUAL BALANCE OF OPERATIONS BETWEEN PROCESSES IS EXPECTED TO BE BETTER THAN THE ESTIMATE
          PRINTED HERE.
      (5) THE UPPER LIMIT OF MEMORY THAT CAN BE ALLOCATED BY ABAQUS WILL IN GENERAL DEPEND ON THE VALUE OF
          THE "MEMORY" PARAMETER AND THE AMOUNT OF PHYSICAL MEMORY AVAILABLE ON THE MACHINE. PLEASE SEE
          THE "ABAQUS ANALYSIS USER'S MANUAL" FOR MORE DETAILS. THE ACTUAL USAGE OF MEMORY AND OF DISK
          SPACE FOR SCRATCH DATA WILL DEPEND ON THIS UPPER LIMIT AS WELL AS THE MEMORY REQUIRED TO MINIMIZE
          I/O. IF THE MEMORY UPPER LIMIT IS GREATER THAN THE MEMORY REQUIRED TO MINIMIZE I/O, THEN THE ACTUAL
          MEMORY USAGE WILL BE CLOSE TO THE ESTIMATED "MEMORY TO MINIMIZE I/O" VALUE, AND THE SCRATCH DISK
          USAGE WILL BE CLOSE-TO-ZERO; OTHERWISE, THE ACTUAL MEMORY USED WILL BE CLOSE TO THE PREVIOUSLY
          MENTIONED MEMORY LIMIT, AND THE SCRATCH DISK USAGE WILL BE ROUGHLY PROPORTIONAL TO THE DIFFERENCE
          BETWEEN THE ESTIMATED "MEMORY TO MINIMIZE I/O" AND THE MEMORY UPPER LIMIT. HOWEVER ACCURATE
          ESTIMATE OF THE SCRATCH DISK SPACE IS NOT POSSIBLE.
      (6) USING "*RESTART, WRITE" CAN GENERATE A LARGE AMOUNT OF DATA WRITTEN IN THE WORK DIRECTORY.


                              E I G E N V A L U E    O U T P U T     

 MODE NO      EIGENVALUE              FREQUENCY         GENERALIZED MASS   COMPOSITE MODAL DAMPING            
                             (RAD/TIME)   (CYCLES/TIME)


       1*    -1.42815E-02     0.0000         0.0000         1.0000         0.0000    
       2*    -6.18503E-03     0.0000         0.0000         1.0000         0.0000    
       3*    -3.04222E-05     0.0000         0.0000         1.0000         0.0000    
       4*     5.68820E-06    2.38500E-03    3.79584E-04     1.0000         0.0000    
       5*     3.19966E-04    1.78876E-02    2.84690E-03     1.0000         0.0000    
       6*     1.49653E-02    0.12233        1.94699E-02     1.0000         0.0000    
       7      4.54347E+05     674.05         107.28         1.0000         0.0000    
       8      5.15719E+05     718.14         114.29         1.0000         0.0000    
       9      3.69058E+06     1921.1         305.75         1.0000         0.0000    
      10      4.05748E+06     2014.3         320.59         1.0000         0.0000    
      11      6.35090E+06     2520.1         401.09         1.0000         0.0000    
      12      8.28999E+06     2879.2         458.24         1.0000         0.0000    
      13      1.24525E+07     3528.8         561.63         1.0000         0.0000    
      14      1.38852E+07     3726.3         593.06         1.0000         0.0000    
      15      1.52691E+07     3907.6         621.91         1.0000         0.0000    

 ***NOTE: EIGENVALUES MARKED WITH A * APPEAR TO BE RIGID BODY MODES




          P A R T I C I P A T I O N   F A C T O R S

 MODE NO    X-COMPONENT    Y-COMPONENT    Z-COMPONENT    X-ROTATION     Y-ROTATION     Z-ROTATION 

       1      8.83457E-02   -0.39632        -4.7965       -0.25945         12.880        -1.0587    
       2      4.71269E-02    -2.0167         1.3436       -0.92091        -3.4353        -5.5091    
       3      -2.0647        -2.0229        -9.6143       -2.28133E-02     4.7537        -1.0178    
       4       1.5929         9.5629        -2.2939        7.12237E-02     1.1347         4.5864    
       5       10.856        -1.8076        -1.4598       -5.29360E-03    0.61496       -0.91697    
       6      7.40105E-02     4.6506        0.14149       -0.49676       -0.41864         12.161    
       7      9.66618E-09    1.57778E-10   -1.59305E-07   -6.10209E-09    4.32349E-07    5.45979E-10
       8     -8.10162E-09   -1.11460E-07   -2.32504E-09    1.75629E-08    6.53767E-09   -2.96729E-07
       9      2.19365E-09   -1.82645E-11   -1.96016E-08   -7.75931E-10    5.27136E-08   -3.35979E-11
      10     -1.73419E-09   -1.01111E-08    2.42942E-10    2.12454E-09   -6.47482E-10   -2.64843E-08
      11      1.06847E-10    1.40477E-08    3.37068E-09    5.75826E-10   -9.21125E-09    3.73036E-08
      12      1.76953E-10   -5.48762E-09   -1.58905E-09   -4.75476E-10    4.44411E-09   -1.45321E-08
      13     -8.12748E-10   -3.61102E-11    5.43293E-09    2.32733E-10   -1.47675E-08   -1.18501E-10
      14     -5.44631E-10   -1.98814E-09    1.42584E-10    5.12198E-10   -3.46123E-10   -5.26051E-09
      15     -2.59782E-10   -1.98973E-09   -2.43178E-10    1.92582E-10    6.60188E-10   -5.22262E-09


                    E F F E C T I V E   M A S S

 MODE NO    X-COMPONENT    Y-COMPONENT    Z-COMPONENT    X-ROTATION     Y-ROTATION     Z-ROTATION 

       1      7.80497E-03    0.15707         23.007        6.73129E-02     165.90         1.1209    
       2      2.22094E-03     4.0672         1.8052        0.84807         11.801         30.350    
       3       4.2630         4.0919         92.435        5.20448E-04     22.597         1.0359    
       4       2.5372         91.448         5.2620        5.07281E-03     1.2876         21.035    
       5       117.84         3.2675         2.1309        2.80222E-05    0.37818        0.84084    
       6      5.47755E-03     21.628        2.00200E-02    0.24677        0.17526         147.88    
       7      9.34350E-17    2.48940E-20    2.53780E-14    3.72355E-17    1.86926E-13    2.98093E-19
       8      6.56363E-17    1.24232E-14    5.40580E-18    3.08456E-16    4.27411E-17    8.80484E-14
       9      4.81208E-18    3.33592E-22    3.84221E-16    6.02070E-19    2.77872E-15    1.12882E-21
      10      3.00740E-18    1.02235E-16    5.90206E-20    4.51369E-18    4.19233E-19    7.01416E-16
      11      1.14162E-20    1.97339E-16    1.13615E-17    3.31576E-19    8.48470E-17    1.39156E-15
      12      3.13123E-20    3.01140E-17    2.52508E-18    2.26078E-19    1.97501E-17    2.11183E-16
      13      6.60559E-19    1.30395E-21    2.95167E-17    5.41646E-20    2.18078E-16    1.40424E-20
      14      2.96623E-19    3.95270E-18    2.03301E-20    2.62347E-19    1.19801E-19    2.76730E-17
      15      6.74868E-20    3.95901E-18    5.91354E-20    3.70877E-20    4.35848E-19    2.72757E-17

 TOTAL         124.66         124.66         124.66         1.1678         202.14         202.26    
1

   Abaqus 2020                                  Date 26-touko-2023   Time 16:02:30
   For use by OULUN YLIOPISTO under license from Dassault Systemes or its subsidiary.

                                                                                               STEP    2  INCREMENT    1
                                                                                          TIME COMPLETED IN THIS STEP   0.00    
 


                        S T E P       2     M A T R I X   G E N E R A T E
 
  THE FOLLOWING GLOBAL MATRICES WILL BE GENERATED AND WRITTEN TO LiftBoom-freebody_X2.sim

    STIFFNESS
    MASS
 
  THE MASS MATRIX PROPERTIES: CONSISTENT MASS MATRIX
 
  IF MULTI-POINT CONSTRAINTS ARE SPECIFIED IN THE MODEL, THEY WILL BE APPLIED
 
  THE FOLLOWING GLOBAL MATRICES WILL BE WRITTEN TO THE FOLLOWING TEXT FILES

    STIFFNESS          TO LiftBoom-freebody_STIF2.mtx
    MASS               TO LiftBoom-freebody_MASS2.mtx
 
  MATRIX OUTPUT FORMAT - COORDINATE
  
                   M E M O R Y   E S T I M A T E
  
 PROCESS      FLOATING PT       MINIMUM MEMORY        MEMORY TO
              OPERATIONS           REQUIRED          MINIMIZE I/O
             PER ITERATION           (MB)               (MB)
  
     1          0.00E+00               25                 58
  
 NOTE:
      (1) SINCE ABAQUS DOES NOT PRE-ALLOCATE MEMORY AND ONLY ALLOCATES MEMORY AS NEEDED DURING THE ANALYSIS,
          THE MEMORY REQUIREMENT PRINTED HERE CAN ONLY BE VIEWED AS A GENERAL GUIDELINE BASED ON THE BEST
          KNOWLEDGE AVAILABLE AT THE BEGINNING OF A STEP BEFORE THE SOLUTION PROCESS HAS BEGUN.
      (2) THE ESTIMATE IS NORMALLY UPDATED AT THE BEGINNING OF EVERY STEP. IT IS THE MAXIMUM VALUE OF THE
          ESTIMATE FROM THE CURRENT STEP TO THE LAST STEP OF THE ANALYSIS, WITH UNSYMMETRIC SOLUTION TAKEN
          INTO ACCOUNT IF APPLICABLE. 
      (3) SINCE THE ESTIMATE IS BASED ON THE ACTIVE DEGREES OF FREEDOM IN THE FIRST ITERATION OF THE 
          CURRENT STEP, THE MEMORY ESTIMATE MIGHT BE SIGNIFICANTLY DIFFERENT THAN ACTUAL USAGE FOR 
          PROBLEMS WITH SUBSTANTIAL CHANGES IN ACTIVE DEGREES OF FREEDOM BETWEEN STEPS (OR EVEN WITHIN
          THE SAME STEP). EXAMPLES ARE: PROBLEMS WITH SIGNIFICANT CONTACT CHANGES, PROBLEMS WITH MODEL
          CHANGE, PROBLEMS WITH BOTH STATIC STEP AND STEADY STATE DYNAMIC PROCEDURES WHERE ACOUSTIC 
          ELEMENTS WILL ONLY BE ACTIVATED IN THE STEADY STATE DYNAMIC STEPS.
      (4) FOR MULTI-PROCESS EXECUTION, THE ESTIMATED VALUE OF FLOATING POINT OPERATIONS FOR EACH PROCESS
          IS BASED ON AN INITIAL SCHEDULING OF OPERATIONS AND MIGHT NOT REFLECT THE ACTUAL FLOATING 
          POINT OPERATIONS COMPLETED ON EACH PROCESS. OPERATIONS ARE DYNAMICALLY BALANCED DURING EXECUTION, 
          SO THE ACTUAL BALANCE OF OPERATIONS BETWEEN PROCESSES IS EXPECTED TO BE BETTER THAN THE ESTIMATE
          PRINTED HERE.
      (5) THE UPPER LIMIT OF MEMORY THAT CAN BE ALLOCATED BY ABAQUS WILL IN GENERAL DEPEND ON THE VALUE OF
          THE "MEMORY" PARAMETER AND THE AMOUNT OF PHYSICAL MEMORY AVAILABLE ON THE MACHINE. PLEASE SEE
          THE "ABAQUS ANALYSIS USER'S MANUAL" FOR MORE DETAILS. THE ACTUAL USAGE OF MEMORY AND OF DISK
          SPACE FOR SCRATCH DATA WILL DEPEND ON THIS UPPER LIMIT AS WELL AS THE MEMORY REQUIRED TO MINIMIZE
          I/O. IF THE MEMORY UPPER LIMIT IS GREATER THAN THE MEMORY REQUIRED TO MINIMIZE I/O, THEN THE ACTUAL
          MEMORY USAGE WILL BE CLOSE TO THE ESTIMATED "MEMORY TO MINIMIZE I/O" VALUE, AND THE SCRATCH DISK
          USAGE WILL BE CLOSE-TO-ZERO; OTHERWISE, THE ACTUAL MEMORY USED WILL BE CLOSE TO THE PREVIOUSLY
          MENTIONED MEMORY LIMIT, AND THE SCRATCH DISK USAGE WILL BE ROUGHLY PROPORTIONAL TO THE DIFFERENCE
          BETWEEN THE ESTIMATED "MEMORY TO MINIMIZE I/O" AND THE MEMORY UPPER LIMIT. HOWEVER ACCURATE
          ESTIMATE OF THE SCRATCH DISK SPACE IS NOT POSSIBLE.
      (6) USING "*RESTART, WRITE" CAN GENERATE A LARGE AMOUNT OF DATA WRITTEN IN THE WORK DIRECTORY.
  


          THE ANALYSIS HAS BEEN COMPLETED



                              ANALYSIS COMPLETE
                              WITH      1 WARNING MESSAGES ON THE DAT FILE



     JOB TIME SUMMARY
       USER TIME (SEC)      =   3.8000    
       SYSTEM TIME (SEC)    =  0.40000    
       TOTAL CPU TIME (SEC) =   4.2000    
       WALLCLOCK TIME (SEC) =          5
