1

   Abaqus 2020                                  Date 05-kesä-2023   Time 12:42:17
   For use by OULUN YLIOPISTO under license from Dassault Systemes or its subsidiary.



                         The Abaqus Software is a product of:

                           Dassault Systemes SIMULIA Corp.
                           1301 Atwood Avenue, Suite 101W
                              Johnston, RI 02919, USA
 


                   The Abaqus Software is available only under license
                   from Dassault Systemes or its subsidiary and may be
                   used or reproduced only in accordance with the terms
                   of such license.
 
                          On machine KO071026 
                          you are authorized to run
                          Abaqus/Foundation until 30-Dec-2023

                          Your site id is: 100000000002728 


 
                    For assistance or any other information you may
                    obtain contact information for your local office
                    from the world wide web at:

                      http://www.3ds.com/products/simulia/locations/

 
                * * * * * * * * * * * * * * * * * * * * * * * * * * * * * * 
                *                                                         * 
                *                   *****************                     * 
                *                   *  N O T I C E  *                     * 
                *                   *****************                     * 
                *                                                         * 
                *                                                         * 
                *                       Abaqus 2020                       * 
                *                                                         * 
                *          BUILD ID: 2019_09_13-20.49.31 163176           * 
                *                                                         * 
                *                                                         * 
                *  Please make sure you are using                         * 
                *  release Abaqus 2020 manuals                            * 
                *  plus the notes accompanying this release.              * 
                *                                                         * 
                *                                                         * 
                *                                                         * 
                *                                                         * 
                *                                                         * 
                *   This program may not be used for commercial purposes  * 
                *           without payment of a commercial fee.          * 
                *                                                         * 
                * * * * * * * * * * * * * * * * * * * * * * * * * * * * * * 


 



     PROCESSING PART, INSTANCE, AND ASSEMBLY INFORMATION
   *******************************************************


     END PROCESSING PART, INSTANCE, AND ASSEMBLY INFORMATION
   ***********************************************************




     OPTIONS BEING PROCESSED
   ***************************


  *Heading
  *Node
  *Element, type=C3D10
  *Nset, nset=ASSEMBLY_P000524_A_1-NOSTOPUOMI_V2_FEM_ST-1_SET-10
  *Nset, nset=ASSEMBLY_P000524_A_1-NOSTOPUOMI_V2_FEM_ST-1_SET-8
  *Nset, nset=ASSEMBLY_P000524_A_1-NOSTOPUOMI_V2_FEM_ST-1_SET-9
  *Elset, elset=ASSEMBLY_P000524_A_1-NOSTOPUOMI_V2_FEM_ST-1_SET-10
  *Elset, elset=ASSEMBLY_P000524_A_1-NOSTOPUOMI_V2_FEM_ST-1_SET-8
  *Elset, elset=ASSEMBLY_P000524_A_1-NOSTOPUOMI_V2_FEM_ST-1_SET-9
  *material, name=MATERIAL-1
  *density
  *elastic
  *solidsection, elset=ASSEMBLY_P000524_A_1-NOSTOPUOMI_V2_FEM_ST-1_SET-10, material=MATERIAL-1
  *solidsection, elset=ASSEMBLY_P000524_A_1-NOSTOPUOMI_V2_FEM_ST-1_SET-10, material=MATERIAL-1
  *output, field, variable=PRESELECT
  *output, field, variable=PRESELECT
  *output, field, variable=PRESELECT
  
                               E L E M E N T   Q U A L I T Y  C H E C K S        
  
  
 ***NOTES: DISTORTED ISOPARAMETRIC ELEMENTS: ANGLE BETWEEN ISOPARAMETRIC LINES 
           IS LESS THAN 45 DEGREES OR GREATER THAN 135 DEGREES.
  
           TETRAHEDRAL QUALITY MEASURE: VOLUME OF TETRAHEDRON DIVIDED BY THE 
           VOLUME OF EQUILATERAL TETRAHEDRON WITH SAME CIRCUMSPHERE RADIUS; 
           0 FOR DEGENERATE TETRAHEDRON AND 1 FOR EQUILATERIAL TETRAHEDRON. IT 
           IS RECOMMENDED THAT THE TETRAHEDRAL QUALITY MEASURE BE GREATER THAN 
           0.02, THE MIN INTERIOR (DIHEDRAL) ANGLE BE GREATER THAN 10 DEGREES, 
           AND THE MAX INTERIOR (DIHEDRAL) ANGLE BE LESS THAN 160 DEGREES. 
  
           MODIFIED TETRAHEDRAL QUALITY MEASURE: ANGLES BETWEEN THE TWO LINE 
           SEGMENTS ON EACH EDGE; THE EDGES OF MODIFIED TETRAHEDRAL SHOULD BE 
           AS STRAIGHT AS POSSIBLE. IT IS RECOMMENDED THAT THE ANGLE BETWEEN 
           THE TWO LINE SEGMENTS ON EACH EDGE IS BETWEEN 160 AND 180 DEGREES. 
  
           TRIANGULAR QUALITY MEASURE: AREA OF TRIANGLE DIVIDED BY THE AREA OF 
           EQUILATERAL TRIANGLE WITH SAME CIRCUMCIRCLE RADIUS; 0 FOR DEGENERATE 
           TRIANGLE AND 1 FOR EQUILATERAL TRIANGLE. IT IS RECOMMENDED THAT THE
           TRIANGULAR QUALITY MEASURE BE GREATER THAN 0.01, THE MIN INTERIOR 
           ANGLE BE GREATER THAN 10 DEGREES, AND THE MAX INTERIOR ANGLE BE LESS 
           THAN 160 DEGREES. 
  
           NODAL ADJUSTMENTS ARISING FROM CONTACT INTERACTIONS AND/OR TIE 
           CONSTRAINTS CAN CAUSE SEVERE ELEMENT DISTORTION. IT MAY BE NECESSARY 
           TO REMESH IN ORDER TO REDUCE THE AMOUNT OF ADJUSTMENT. 

 ***WARNING: 3577 elements are distorted. Either the isoparametric angles are 
             out of the suggested limits or the triangular or tetrahedral 
             quality measure is bad. The elements have been identified in 
             element set WarnElemDistorted.
  
 --------------------------------------------------------------------------------
 Distorted tetrahedral elements
  
                  Element                  Quality measure     Min angle        Max angle     Adjusted nodes 
 ----------------------------------------- ---------------- ---------------- ---------------- -------------- 
      P000524_A_1-NOSTOPUOMI_V2_FEM_ST-1.1        0.0035555           4.8927          170.848       NO       
      P000524_A_1-NOSTOPUOMI_V2_FEM_ST-1.2          0.11265          7.03038          92.7474       NO       
      P000524_A_1-NOSTOPUOMI_V2_FEM_ST-1.3         0.071009          9.93307          91.2231       NO       
      P000524_A_1-NOSTOPUOMI_V2_FEM_ST-1.5        0.0610691          6.67591          103.203       NO       
      P000524_A_1-NOSTOPUOMI_V2_FEM_ST-1.6       0.00197386          14.0678          156.528       NO       
      P000524_A_1-NOSTOPUOMI_V2_FEM_ST-1.7       0.00106813          7.47608          163.992       NO       
      P000524_A_1-NOSTOPUOMI_V2_FEM_ST-1.9        0.0131276          28.8663          112.456       NO       
     P000524_A_1-NOSTOPUOMI_V2_FEM_ST-1.10          0.11265          6.69787          92.6183       NO       
     P000524_A_1-NOSTOPUOMI_V2_FEM_ST-1.11      6.03207E-05          4.56623          173.302       NO       
     P000524_A_1-NOSTOPUOMI_V2_FEM_ST-1.12         0.104863           7.1743          93.1023       NO       
     P000524_A_1-NOSTOPUOMI_V2_FEM_ST-1.14        0.0131737          28.6672          112.737       NO       
     P000524_A_1-NOSTOPUOMI_V2_FEM_ST-1.15      0.000388359          4.89929          121.211       NO       
     P000524_A_1-NOSTOPUOMI_V2_FEM_ST-1.16      8.96278E-05          5.04245          172.616       NO       
     P000524_A_1-NOSTOPUOMI_V2_FEM_ST-1.17      8.96278E-05          4.90531          172.585       NO       
     P000524_A_1-NOSTOPUOMI_V2_FEM_ST-1.18      5.92243E-05           4.4223          173.285       NO       
     P000524_A_1-NOSTOPUOMI_V2_FEM_ST-1.19         0.079532          7.02228              90.       NO       
     P000524_A_1-NOSTOPUOMI_V2_FEM_ST-1.20          0.10943          7.03037          92.8774       NO       
     P000524_A_1-NOSTOPUOMI_V2_FEM_ST-1.21          0.10943          6.89446          92.8221       NO       
     P000524_A_1-NOSTOPUOMI_V2_FEM_ST-1.22         0.114365          7.03037          92.8151       NO       
     P000524_A_1-NOSTOPUOMI_V2_FEM_ST-1.24      6.66811E-05          4.69942          173.099       NO       
     P000524_A_1-NOSTOPUOMI_V2_FEM_ST-1.25        0.0153125          28.9423          123.738       NO       
     P000524_A_1-NOSTOPUOMI_V2_FEM_ST-1.26         0.114365          7.15635          94.1955       NO       
     P000524_A_1-NOSTOPUOMI_V2_FEM_ST-1.27        0.0132267          3.46852          112.501       NO       
     P000524_A_1-NOSTOPUOMI_V2_FEM_ST-1.30       0.00148144          6.99464          165.847       NO       
     P000524_A_1-NOSTOPUOMI_V2_FEM_ST-1.31      0.000290751          8.68401          168.532       NO       
     P000524_A_1-NOSTOPUOMI_V2_FEM_ST-1.32      0.000928145          9.61789          164.795       NO       
     P000524_A_1-NOSTOPUOMI_V2_FEM_ST-1.33      0.000459861          7.52179          167.443       NO       
     P000524_A_1-NOSTOPUOMI_V2_FEM_ST-1.34       0.00554508          8.55509          162.094       NO       
     P000524_A_1-NOSTOPUOMI_V2_FEM_ST-1.35       0.00010622          10.5373          141.123       NO       
     P000524_A_1-NOSTOPUOMI_V2_FEM_ST-1.36      0.000287263          2.25554          114.043       NO       
     P000524_A_1-NOSTOPUOMI_V2_FEM_ST-1.37       5.8985E-05          14.1842          147.275       NO       
     P000524_A_1-NOSTOPUOMI_V2_FEM_ST-1.38         0.173126          9.61023          90.3155       NO       
     P000524_A_1-NOSTOPUOMI_V2_FEM_ST-1.40      0.000630841          18.4379          146.801       NO       
     P000524_A_1-NOSTOPUOMI_V2_FEM_ST-1.41         0.013205           28.645          112.775       NO       
     P000524_A_1-NOSTOPUOMI_V2_FEM_ST-1.42      0.000637075          2.80947           139.75       NO       
     P000524_A_1-NOSTOPUOMI_V2_FEM_ST-1.43      0.000189897          10.5889          169.928       NO       
     P000524_A_1-NOSTOPUOMI_V2_FEM_ST-1.44         0.115075          9.00477          96.6924       NO       
     P000524_A_1-NOSTOPUOMI_V2_FEM_ST-1.45        0.0263723          4.52997          112.356       NO       
     P000524_A_1-NOSTOPUOMI_V2_FEM_ST-1.46         0.013239           3.4705          112.499       NO       
     P000524_A_1-NOSTOPUOMI_V2_FEM_ST-1.48      2.52583E-05          3.16768          175.298       NO       
     P000524_A_1-NOSTOPUOMI_V2_FEM_ST-1.49      9.61344E-05          7.55983          171.264       NO       
     P000524_A_1-NOSTOPUOMI_V2_FEM_ST-1.50      0.000720685           9.9798          161.728       NO       
     P000524_A_1-NOSTOPUOMI_V2_FEM_ST-1.51          0.10947          8.03716          91.9077       NO       
     P000524_A_1-NOSTOPUOMI_V2_FEM_ST-1.52      0.000416839          5.74973           171.79       NO       
     P000524_A_1-NOSTOPUOMI_V2_FEM_ST-1.53      9.58176E-05          9.09317          170.981       NO       
     P000524_A_1-NOSTOPUOMI_V2_FEM_ST-1.54      0.000430163          8.13876          167.914       NO       
     P000524_A_1-NOSTOPUOMI_V2_FEM_ST-1.55       0.00137078          14.6915          158.866       NO       
     P000524_A_1-NOSTOPUOMI_V2_FEM_ST-1.57       0.00347003          12.1668          158.444       NO       
     P000524_A_1-NOSTOPUOMI_V2_FEM_ST-1.59      0.000588178          6.85528          165.062       NO       
     P000524_A_1-NOSTOPUOMI_V2_FEM_ST-1.60      0.000453894          5.46163          169.389       NO       
     P000524_A_1-NOSTOPUOMI_V2_FEM_ST-1.62        0.0366149          9.47661          94.7261       NO       
     P000524_A_1-NOSTOPUOMI_V2_FEM_ST-1.63         0.182935           9.6581          152.773       NO       
     P000524_A_1-NOSTOPUOMI_V2_FEM_ST-1.65       0.00696847           10.925          163.714       NO       
     P000524_A_1-NOSTOPUOMI_V2_FEM_ST-1.66      0.000972699          26.6391          154.928       NO       
     P000524_A_1-NOSTOPUOMI_V2_FEM_ST-1.67      7.90629E-05          6.27159          171.748       NO       
     P000524_A_1-NOSTOPUOMI_V2_FEM_ST-1.68        0.0263722          4.52997          112.356       NO       
     P000524_A_1-NOSTOPUOMI_V2_FEM_ST-1.69      0.000724462          11.2219          167.956       NO       
     P000524_A_1-NOSTOPUOMI_V2_FEM_ST-1.70      0.000401922          20.6142          165.716       NO       
     P000524_A_1-NOSTOPUOMI_V2_FEM_ST-1.71       0.00104645          12.4755          162.198       NO       
     P000524_A_1-NOSTOPUOMI_V2_FEM_ST-1.72        0.0131862          28.7816          112.499       NO       
     P000524_A_1-NOSTOPUOMI_V2_FEM_ST-1.73      0.000407028           11.286          167.189       NO       
     P000524_A_1-NOSTOPUOMI_V2_FEM_ST-1.74      0.000124079          13.4639          149.607       NO       
     P000524_A_1-NOSTOPUOMI_V2_FEM_ST-1.75         0.013239           3.4705          112.499       NO       
     P000524_A_1-NOSTOPUOMI_V2_FEM_ST-1.78        0.0714825          6.60544          90.9423       NO       
     P000524_A_1-NOSTOPUOMI_V2_FEM_ST-1.80         0.111255           7.4459          90.2532       NO       
     P000524_A_1-NOSTOPUOMI_V2_FEM_ST-1.81        0.0036397          11.8977          161.656       NO       
     P000524_A_1-NOSTOPUOMI_V2_FEM_ST-1.82        0.0131862          3.47127          112.499       NO       
     P000524_A_1-NOSTOPUOMI_V2_FEM_ST-1.84      0.000972699          26.6391          154.928       NO       
     P000524_A_1-NOSTOPUOMI_V2_FEM_ST-1.87       0.00366037          13.8185          160.155       NO       
     P000524_A_1-NOSTOPUOMI_V2_FEM_ST-1.88      0.000542434          8.97977          161.437       NO       
     P000524_A_1-NOSTOPUOMI_V2_FEM_ST-1.89       0.00190098          11.0775          165.278       NO       
     P000524_A_1-NOSTOPUOMI_V2_FEM_ST-1.90        0.0128795          12.0435          153.364       NO       
     P000524_A_1-NOSTOPUOMI_V2_FEM_ST-1.91      0.000895019           8.0688          141.829       NO       
     P000524_A_1-NOSTOPUOMI_V2_FEM_ST-1.93      0.000159999          21.9723          168.522       NO       
     P000524_A_1-NOSTOPUOMI_V2_FEM_ST-1.94         0.111501          8.55498          96.4437       NO       
     P000524_A_1-NOSTOPUOMI_V2_FEM_ST-1.95        0.0858747          7.63693          90.6444       NO       
     P000524_A_1-NOSTOPUOMI_V2_FEM_ST-1.96        0.0187489          8.37392          108.048       NO       
     P000524_A_1-NOSTOPUOMI_V2_FEM_ST-1.97      4.29846E-05          2.81727          144.934       NO       
    P000524_A_1-NOSTOPUOMI_V2_FEM_ST-1.100        0.0795321          7.02229              90.       NO       
    P000524_A_1-NOSTOPUOMI_V2_FEM_ST-1.101        0.0131737          28.6672          112.737       NO       
    P000524_A_1-NOSTOPUOMI_V2_FEM_ST-1.102       0.00117829          15.5908          153.588       NO       
    P000524_A_1-NOSTOPUOMI_V2_FEM_ST-1.103         0.101015          7.41528          93.3358       NO       
    P000524_A_1-NOSTOPUOMI_V2_FEM_ST-1.104        0.0132059           28.753          112.501       NO       
    P000524_A_1-NOSTOPUOMI_V2_FEM_ST-1.105         0.110735          7.38357           94.415       NO       
    P000524_A_1-NOSTOPUOMI_V2_FEM_ST-1.106      0.000684986          11.2459          169.099       NO       
    P000524_A_1-NOSTOPUOMI_V2_FEM_ST-1.107      6.79152E-05          4.85067          173.106       NO       
    P000524_A_1-NOSTOPUOMI_V2_FEM_ST-1.108        0.0014727          13.7371          161.582       NO       
    P000524_A_1-NOSTOPUOMI_V2_FEM_ST-1.109       0.00231215          9.51108          160.509       NO       
    P000524_A_1-NOSTOPUOMI_V2_FEM_ST-1.110          0.11856          6.90126          92.7603       NO       
    P000524_A_1-NOSTOPUOMI_V2_FEM_ST-1.111        0.0361977          7.69808          93.8801       NO       
    P000524_A_1-NOSTOPUOMI_V2_FEM_ST-1.113         0.121425          6.71484          92.7603       NO       
    P000524_A_1-NOSTOPUOMI_V2_FEM_ST-1.114         0.026337          4.53267          112.398       NO       
    P000524_A_1-NOSTOPUOMI_V2_FEM_ST-1.115         0.110735          7.03038          92.8984       NO       
    P000524_A_1-NOSTOPUOMI_V2_FEM_ST-1.116      7.92876E-05          5.04245          172.844       NO       
    P000524_A_1-NOSTOPUOMI_V2_FEM_ST-1.118      0.000211946          10.3805          124.628       NO       
    P000524_A_1-NOSTOPUOMI_V2_FEM_ST-1.119         0.118776           7.4419              90.       NO       
    P000524_A_1-NOSTOPUOMI_V2_FEM_ST-1.122      0.000748532           8.1682          119.159       NO       
    P000524_A_1-NOSTOPUOMI_V2_FEM_ST-1.123      0.000167944          6.24572          165.128       NO       
    P000524_A_1-NOSTOPUOMI_V2_FEM_ST-1.124         0.121834           7.4908          92.6084       NO       
    P000524_A_1-NOSTOPUOMI_V2_FEM_ST-1.125         0.079532          4.88637          172.978       NO       
    P000524_A_1-NOSTOPUOMI_V2_FEM_ST-1.127        0.0132059           28.753          112.501       NO       
    P000524_A_1-NOSTOPUOMI_V2_FEM_ST-1.128      2.52583E-05          3.93552          173.836       NO       
    P000524_A_1-NOSTOPUOMI_V2_FEM_ST-1.129        0.0479954          9.23589          95.8226       NO       
    P000524_A_1-NOSTOPUOMI_V2_FEM_ST-1.130        0.0131277          28.8663          112.456       NO       
    P000524_A_1-NOSTOPUOMI_V2_FEM_ST-1.133        0.0131862          28.6747          112.494       NO       
    P000524_A_1-NOSTOPUOMI_V2_FEM_ST-1.134         0.079532          7.02228              90.       NO       
    P000524_A_1-NOSTOPUOMI_V2_FEM_ST-1.135        0.0443041          7.28228          93.1964       NO       
    P000524_A_1-NOSTOPUOMI_V2_FEM_ST-1.136        0.0131737          28.6672          112.737       NO       
    P000524_A_1-NOSTOPUOMI_V2_FEM_ST-1.138         0.026337          4.53266          112.398       NO       
    P000524_A_1-NOSTOPUOMI_V2_FEM_ST-1.140        0.0131862          3.47127          112.499       NO       
    P000524_A_1-NOSTOPUOMI_V2_FEM_ST-1.142      6.52091E-05          5.76153          170.286       NO       
    P000524_A_1-NOSTOPUOMI_V2_FEM_ST-1.144         0.117715           8.8195          152.773       NO       
    P000524_A_1-NOSTOPUOMI_V2_FEM_ST-1.147        0.0023182          12.5686          162.666       NO       
    P000524_A_1-NOSTOPUOMI_V2_FEM_ST-1.148        0.0113582          9.11118          150.763       NO       
    P000524_A_1-NOSTOPUOMI_V2_FEM_ST-1.153      0.000190388          15.9815          139.739       NO       
    P000524_A_1-NOSTOPUOMI_V2_FEM_ST-1.154         0.079532          7.03038              90.       NO       
    P000524_A_1-NOSTOPUOMI_V2_FEM_ST-1.155      0.000179432          5.86557          165.135       NO       
    P000524_A_1-NOSTOPUOMI_V2_FEM_ST-1.157      6.32159E-05          3.63079          170.862       NO       
    P000524_A_1-NOSTOPUOMI_V2_FEM_ST-1.158       0.00690638          5.33147          170.848       NO       
    P000524_A_1-NOSTOPUOMI_V2_FEM_ST-1.160       0.00147856          12.8112          161.845       NO       
    P000524_A_1-NOSTOPUOMI_V2_FEM_ST-1.162        0.0131862          28.7817          112.499       NO       
    P000524_A_1-NOSTOPUOMI_V2_FEM_ST-1.163        0.0132267          3.46852          112.501       NO       
    P000524_A_1-NOSTOPUOMI_V2_FEM_ST-1.164      0.000627022          8.41842          165.824       NO       
    P000524_A_1-NOSTOPUOMI_V2_FEM_ST-1.168       0.00090111          9.19291          166.011       NO       
    P000524_A_1-NOSTOPUOMI_V2_FEM_ST-1.170       0.00117829          15.5908          153.588       NO       
    P000524_A_1-NOSTOPUOMI_V2_FEM_ST-1.171      0.000328678          5.34638          108.439       NO       
    P000524_A_1-NOSTOPUOMI_V2_FEM_ST-1.172        2.413E-05          6.32389          137.541       NO       
    P000524_A_1-NOSTOPUOMI_V2_FEM_ST-1.174      0.000484696          7.24675          165.151       NO       
    P000524_A_1-NOSTOPUOMI_V2_FEM_ST-1.175        0.0144346          10.9007          152.434       NO       
    P000524_A_1-NOSTOPUOMI_V2_FEM_ST-1.176      0.000121174          8.85842           128.66       NO       
    P000524_A_1-NOSTOPUOMI_V2_FEM_ST-1.177      0.000124599          8.12751          137.264       NO       
    P000524_A_1-NOSTOPUOMI_V2_FEM_ST-1.178      8.54227E-05          5.76836          170.691       NO       
    P000524_A_1-NOSTOPUOMI_V2_FEM_ST-1.179       0.00174144          10.5114           158.54       NO       
    P000524_A_1-NOSTOPUOMI_V2_FEM_ST-1.181      7.92876E-05          4.90531          172.826       NO       
    P000524_A_1-NOSTOPUOMI_V2_FEM_ST-1.182        0.0142805          8.26908           151.74       NO       
    P000524_A_1-NOSTOPUOMI_V2_FEM_ST-1.183        0.0132059           28.753          112.501       NO       
    P000524_A_1-NOSTOPUOMI_V2_FEM_ST-1.186        0.0132267          3.46852          112.501       NO       
    P000524_A_1-NOSTOPUOMI_V2_FEM_ST-1.187        0.0263579           4.7075          106.234       NO       
    P000524_A_1-NOSTOPUOMI_V2_FEM_ST-1.189        0.0037995          10.8612          161.202       NO       
    P000524_A_1-NOSTOPUOMI_V2_FEM_ST-1.192        0.0187489          12.7423          98.2971       NO       
    P000524_A_1-NOSTOPUOMI_V2_FEM_ST-1.193       0.00031163          5.04245          166.021       NO       
    P000524_A_1-NOSTOPUOMI_V2_FEM_ST-1.194        0.0131862          28.6747          112.494       NO       
    P000524_A_1-NOSTOPUOMI_V2_FEM_ST-1.196       0.00108703          7.08743          165.965       NO       
    P000524_A_1-NOSTOPUOMI_V2_FEM_ST-1.197      0.000893418          7.36106          167.341       NO       
    P000524_A_1-NOSTOPUOMI_V2_FEM_ST-1.198       0.00139674          13.3854          160.056       NO       
    P000524_A_1-NOSTOPUOMI_V2_FEM_ST-1.199         0.013205          28.6451          112.775       NO       
    P000524_A_1-NOSTOPUOMI_V2_FEM_ST-1.201      0.000736705           7.0379          167.799       NO       
    P000524_A_1-NOSTOPUOMI_V2_FEM_ST-1.202       0.00337531          6.11734          166.911       NO       
    P000524_A_1-NOSTOPUOMI_V2_FEM_ST-1.205       0.00173998          5.80472          163.037       NO       
    P000524_A_1-NOSTOPUOMI_V2_FEM_ST-1.206      0.000237955          6.55032          168.913       NO       
    P000524_A_1-NOSTOPUOMI_V2_FEM_ST-1.207       0.00621672          2.36505          112.501       NO       
    P000524_A_1-NOSTOPUOMI_V2_FEM_ST-1.208        0.0124003            38.95              90.       NO       
    P000524_A_1-NOSTOPUOMI_V2_FEM_ST-1.209       0.00454128          1.79486          158.635       NO       
    P000524_A_1-NOSTOPUOMI_V2_FEM_ST-1.210      1.82269E-05          4.72616          114.222       NO       
    P000524_A_1-NOSTOPUOMI_V2_FEM_ST-1.211        0.0616073          5.09955          91.0307       NO       
    P000524_A_1-NOSTOPUOMI_V2_FEM_ST-1.212        0.0581249           6.0458              90.       NO       
    P000524_A_1-NOSTOPUOMI_V2_FEM_ST-1.213      0.000220639          6.75618          168.771       NO       
    P000524_A_1-NOSTOPUOMI_V2_FEM_ST-1.214        0.0512227          6.28444          94.7221       NO       
    P000524_A_1-NOSTOPUOMI_V2_FEM_ST-1.215      0.000224403          18.6177          133.395       NO       
    P000524_A_1-NOSTOPUOMI_V2_FEM_ST-1.216       0.00620015          28.6754          112.486       NO       
    P000524_A_1-NOSTOPUOMI_V2_FEM_ST-1.217      0.000433938          6.15597          169.395       NO       
    P000524_A_1-NOSTOPUOMI_V2_FEM_ST-1.218      3.95838E-06          2.80047          175.796       NO       
    P000524_A_1-NOSTOPUOMI_V2_FEM_ST-1.219        0.0124004          38.9501              90.       NO       
    P000524_A_1-NOSTOPUOMI_V2_FEM_ST-1.220         0.061465          5.32365          92.9212       NO       
    P000524_A_1-NOSTOPUOMI_V2_FEM_ST-1.221        0.0581249          3.34543              90.       NO       
    P000524_A_1-NOSTOPUOMI_V2_FEM_ST-1.222         0.057864          5.18344              90.       NO       
    P000524_A_1-NOSTOPUOMI_V2_FEM_ST-1.223       0.00620404          28.6747          112.512       NO       
    P000524_A_1-NOSTOPUOMI_V2_FEM_ST-1.224        0.0626246           4.6751          91.2034       NO       
    P000524_A_1-NOSTOPUOMI_V2_FEM_ST-1.225      8.27487E-07          1.75532          177.248       NO       
    P000524_A_1-NOSTOPUOMI_V2_FEM_ST-1.226         0.062641          5.64811          93.2661       NO       
    P000524_A_1-NOSTOPUOMI_V2_FEM_ST-1.227       2.4194E-05          2.88282          171.736       NO       
    P000524_A_1-NOSTOPUOMI_V2_FEM_ST-1.228       0.00620404          2.36618          112.499       NO       
    P000524_A_1-NOSTOPUOMI_V2_FEM_ST-1.229        0.0124003            38.95              90.       NO       
    P000524_A_1-NOSTOPUOMI_V2_FEM_ST-1.232        0.0522772          7.19098              90.       NO       
    P000524_A_1-NOSTOPUOMI_V2_FEM_ST-1.233      2.44861E-06          1.66566          174.681       NO       
    P000524_A_1-NOSTOPUOMI_V2_FEM_ST-1.234      9.58228E-05          3.16693          174.788       NO       
    P000524_A_1-NOSTOPUOMI_V2_FEM_ST-1.235      4.05187E-05          4.72632           106.25       NO       
    P000524_A_1-NOSTOPUOMI_V2_FEM_ST-1.236        0.0541127          3.31857          96.8818       NO       
    P000524_A_1-NOSTOPUOMI_V2_FEM_ST-1.237       0.00620406          28.6747          112.512       NO       
    P000524_A_1-NOSTOPUOMI_V2_FEM_ST-1.238      1.43749E-05          1.60958          176.554       NO       
    P000524_A_1-NOSTOPUOMI_V2_FEM_ST-1.240        0.0061851          28.7639          112.479       NO       
    P000524_A_1-NOSTOPUOMI_V2_FEM_ST-1.242        0.0522772          7.17887          93.3165       NO       
    P000524_A_1-NOSTOPUOMI_V2_FEM_ST-1.243      3.00318E-05          4.37331          173.534       NO       
    P000524_A_1-NOSTOPUOMI_V2_FEM_ST-1.244         0.058125           6.0458              90.       NO       
    P000524_A_1-NOSTOPUOMI_V2_FEM_ST-1.245      0.000477418          6.50758          170.026       NO       
    P000524_A_1-NOSTOPUOMI_V2_FEM_ST-1.246        0.0541127          7.64694              90.       NO       
    P000524_A_1-NOSTOPUOMI_V2_FEM_ST-1.247         0.116529          5.51334          90.8173       NO       
    P000524_A_1-NOSTOPUOMI_V2_FEM_ST-1.248       0.00620406          2.36618          112.499       NO       
    P000524_A_1-NOSTOPUOMI_V2_FEM_ST-1.249      1.89783E-05          4.72596          118.943       NO       
    P000524_A_1-NOSTOPUOMI_V2_FEM_ST-1.250      5.69465E-06          3.70086          140.851       NO       
    P000524_A_1-NOSTOPUOMI_V2_FEM_ST-1.251      3.87788E-05          4.72628          112.447       NO       
    P000524_A_1-NOSTOPUOMI_V2_FEM_ST-1.253         0.056363          6.31809          90.9423       NO       
    P000524_A_1-NOSTOPUOMI_V2_FEM_ST-1.254         0.056363          5.31927          90.0874       NO       
    P000524_A_1-NOSTOPUOMI_V2_FEM_ST-1.255      4.09418E-06           11.656          172.188       NO       
    P000524_A_1-NOSTOPUOMI_V2_FEM_ST-1.256        0.0370555          4.58596          100.371       NO       
    P000524_A_1-NOSTOPUOMI_V2_FEM_ST-1.257       0.00116423          4.09931          166.722       NO       
    P000524_A_1-NOSTOPUOMI_V2_FEM_ST-1.258       0.00613878          1.60582          141.158       NO       
    P000524_A_1-NOSTOPUOMI_V2_FEM_ST-1.259      2.44861E-06          1.46761          177.822       NO       
    P000524_A_1-NOSTOPUOMI_V2_FEM_ST-1.261       0.00620015          28.6845          112.587       NO       
    P000524_A_1-NOSTOPUOMI_V2_FEM_ST-1.262      1.07713E-05          2.42554          136.257       NO       
    P000524_A_1-NOSTOPUOMI_V2_FEM_ST-1.264        0.0576564          6.27921              90.       NO       
    P000524_A_1-NOSTOPUOMI_V2_FEM_ST-1.265        0.0642098          5.55416          90.5985       NO       
    P000524_A_1-NOSTOPUOMI_V2_FEM_ST-1.266        0.0581249          6.04891              90.       NO       
    P000524_A_1-NOSTOPUOMI_V2_FEM_ST-1.267      2.33171E-05          2.38266          172.997       NO       
    P000524_A_1-NOSTOPUOMI_V2_FEM_ST-1.268         0.033633            5.365           94.206       NO       
    P000524_A_1-NOSTOPUOMI_V2_FEM_ST-1.269        0.0124081          38.8263          90.3606       NO       
    P000524_A_1-NOSTOPUOMI_V2_FEM_ST-1.270      3.19796E-05          1.85602          175.481       NO       
    P000524_A_1-NOSTOPUOMI_V2_FEM_ST-1.271       0.00620405          28.6747          112.512       NO       
    P000524_A_1-NOSTOPUOMI_V2_FEM_ST-1.272      0.000254785          4.13762          170.919       NO       
    P000524_A_1-NOSTOPUOMI_V2_FEM_ST-1.273      1.82269E-05          4.72616          114.222       NO       
    P000524_A_1-NOSTOPUOMI_V2_FEM_ST-1.275      5.85869E-06          2.61795          140.832       NO       
    P000524_A_1-NOSTOPUOMI_V2_FEM_ST-1.276       0.00234035          9.69664           103.08       NO       
    P000524_A_1-NOSTOPUOMI_V2_FEM_ST-1.277      4.62658E-05          4.90338          166.911       NO       
    P000524_A_1-NOSTOPUOMI_V2_FEM_ST-1.278       0.00620017          28.6845          112.587       NO       
    P000524_A_1-NOSTOPUOMI_V2_FEM_ST-1.279        0.0937755          5.04735          91.5681       NO       
    P000524_A_1-NOSTOPUOMI_V2_FEM_ST-1.280       0.00088244          4.22182           100.22       NO       
    P000524_A_1-NOSTOPUOMI_V2_FEM_ST-1.281       0.00620406          28.6747          112.512       NO       
    P000524_A_1-NOSTOPUOMI_V2_FEM_ST-1.282      1.52905E-05          1.28613           127.41       NO       
    P000524_A_1-NOSTOPUOMI_V2_FEM_ST-1.283        0.0169073          38.9691          89.8382       NO       
    P000524_A_1-NOSTOPUOMI_V2_FEM_ST-1.284      1.10436E-05          7.68267          150.243       NO       
    P000524_A_1-NOSTOPUOMI_V2_FEM_ST-1.285      8.11862E-06          7.53976          151.836       NO       
    P000524_A_1-NOSTOPUOMI_V2_FEM_ST-1.286      3.61932E-06          10.5056          173.964       NO       
    P000524_A_1-NOSTOPUOMI_V2_FEM_ST-1.287      0.000201971          18.3715          134.342       NO       
    P000524_A_1-NOSTOPUOMI_V2_FEM_ST-1.288       0.00432438          15.5827          100.521       NO       
    P000524_A_1-NOSTOPUOMI_V2_FEM_ST-1.289       0.00238388          9.46946          101.087       NO       
    P000524_A_1-NOSTOPUOMI_V2_FEM_ST-1.290       0.00620406          2.36618          112.499       NO       
    P000524_A_1-NOSTOPUOMI_V2_FEM_ST-1.291      5.04987E-07          1.82561          177.384       NO       
    P000524_A_1-NOSTOPUOMI_V2_FEM_ST-1.292      3.34821E-05          2.76518          173.964       NO       
    P000524_A_1-NOSTOPUOMI_V2_FEM_ST-1.294      0.000879875          3.19226          99.2288       NO       
    P000524_A_1-NOSTOPUOMI_V2_FEM_ST-1.295        0.0124081          38.8263          90.3606       NO       
    P000524_A_1-NOSTOPUOMI_V2_FEM_ST-1.296       0.00621674          2.36505          112.501       NO       
    P000524_A_1-NOSTOPUOMI_V2_FEM_ST-1.297      0.000143308          15.1758          144.022       NO       
    P000524_A_1-NOSTOPUOMI_V2_FEM_ST-1.298         0.174275          7.58659          93.4783       NO       
    P000524_A_1-NOSTOPUOMI_V2_FEM_ST-1.299      5.88097E-06          3.88364          161.401       NO       
    P000524_A_1-NOSTOPUOMI_V2_FEM_ST-1.300        0.0591439          6.11951          90.0851       NO       
    P000524_A_1-NOSTOPUOMI_V2_FEM_ST-1.301        0.0581249          5.04245          90.9386       NO       
    P000524_A_1-NOSTOPUOMI_V2_FEM_ST-1.302        0.0581249          6.04891              90.       NO       
    P000524_A_1-NOSTOPUOMI_V2_FEM_ST-1.303      9.90272E-06          2.35333          159.244       NO       
    P000524_A_1-NOSTOPUOMI_V2_FEM_ST-1.304       0.00343846          12.2329          99.6107       NO       
    P000524_A_1-NOSTOPUOMI_V2_FEM_ST-1.305        0.0581249           6.0458              90.       NO       
    P000524_A_1-NOSTOPUOMI_V2_FEM_ST-1.306       4.2916E-05          4.81199          167.152       NO       
    P000524_A_1-NOSTOPUOMI_V2_FEM_ST-1.307      1.99962E-05          5.82688          118.679       NO       
    P000524_A_1-NOSTOPUOMI_V2_FEM_ST-1.308      9.74834E-06           4.3577           145.47       NO       
    P000524_A_1-NOSTOPUOMI_V2_FEM_ST-1.309        0.0581249           3.3325          173.954       NO       
    P000524_A_1-NOSTOPUOMI_V2_FEM_ST-1.310       0.00622017          2.36587          112.499       NO       
    P000524_A_1-NOSTOPUOMI_V2_FEM_ST-1.311         0.058125          6.04891              90.       NO       
    P000524_A_1-NOSTOPUOMI_V2_FEM_ST-1.312         0.058125           3.3325          173.954       NO       
    P000524_A_1-NOSTOPUOMI_V2_FEM_ST-1.313        0.0581249           3.3325          173.954       NO       
    P000524_A_1-NOSTOPUOMI_V2_FEM_ST-1.314      0.000450137          3.34544          173.951       NO       
    P000524_A_1-NOSTOPUOMI_V2_FEM_ST-1.315         0.058125          5.04245          90.9386       NO       
    P000524_A_1-NOSTOPUOMI_V2_FEM_ST-1.316        0.0581249          5.04245          90.9386       NO       
    P000524_A_1-NOSTOPUOMI_V2_FEM_ST-1.317      0.000455897          6.04891          169.915       NO       
    P000524_A_1-NOSTOPUOMI_V2_FEM_ST-1.318      0.000455897          6.04891          169.915       NO       
    P000524_A_1-NOSTOPUOMI_V2_FEM_ST-1.319        0.0581248           6.0458              90.       NO       
    P000524_A_1-NOSTOPUOMI_V2_FEM_ST-1.320       0.00621055          28.7257           112.52       NO       
    P000524_A_1-NOSTOPUOMI_V2_FEM_ST-1.321        0.0123709          38.8888          90.8705       NO       
    P000524_A_1-NOSTOPUOMI_V2_FEM_ST-1.322       0.00618505          28.7411          112.499       NO       
    P000524_A_1-NOSTOPUOMI_V2_FEM_ST-1.323       0.00621052          28.7257           112.52       NO       
    P000524_A_1-NOSTOPUOMI_V2_FEM_ST-1.324         0.058125          3.34544              90.       NO       
    P000524_A_1-NOSTOPUOMI_V2_FEM_ST-1.325      1.17117E-05          3.08764          132.763       NO       
    P000524_A_1-NOSTOPUOMI_V2_FEM_ST-1.326        0.0576564          6.27921              90.       NO       
    P000524_A_1-NOSTOPUOMI_V2_FEM_ST-1.327        0.0124003          38.9501              90.       NO       
    P000524_A_1-NOSTOPUOMI_V2_FEM_ST-1.328        0.0581249          6.04891              90.       NO       
    P000524_A_1-NOSTOPUOMI_V2_FEM_ST-1.329       0.00238388          13.8976          100.627       NO       
    P000524_A_1-NOSTOPUOMI_V2_FEM_ST-1.330        0.0581249          6.04891              90.       NO       
    P000524_A_1-NOSTOPUOMI_V2_FEM_ST-1.331        0.0581249          3.34544              90.       NO       
    P000524_A_1-NOSTOPUOMI_V2_FEM_ST-1.332        0.0581249           6.0458              90.       NO       
    P000524_A_1-NOSTOPUOMI_V2_FEM_ST-1.333        0.0123977           3.0909          112.447       NO       
    P000524_A_1-NOSTOPUOMI_V2_FEM_ST-1.334         0.058125          5.04245          90.9386       NO       
    P000524_A_1-NOSTOPUOMI_V2_FEM_ST-1.335        0.0581249          5.04245          90.9386       NO       
    P000524_A_1-NOSTOPUOMI_V2_FEM_ST-1.336        0.0581249           3.3325          173.954       NO       
    P000524_A_1-NOSTOPUOMI_V2_FEM_ST-1.337         0.058125          6.04581              90.       NO       
    P000524_A_1-NOSTOPUOMI_V2_FEM_ST-1.338       0.00617945          28.6754          112.447       NO       
    P000524_A_1-NOSTOPUOMI_V2_FEM_ST-1.339       0.00185904          2.23198          163.677       NO       
    P000524_A_1-NOSTOPUOMI_V2_FEM_ST-1.340        0.0124003            38.95              90.       NO       
    P000524_A_1-NOSTOPUOMI_V2_FEM_ST-1.341       0.00571504          1.74124          176.844       NO       
    P000524_A_1-NOSTOPUOMI_V2_FEM_ST-1.342         0.058125           3.3325          173.954       NO       
    P000524_A_1-NOSTOPUOMI_V2_FEM_ST-1.343       0.00622019          2.36587          112.499       NO       
    P000524_A_1-NOSTOPUOMI_V2_FEM_ST-1.344       0.00190145          1.85948          160.811       NO       
    P000524_A_1-NOSTOPUOMI_V2_FEM_ST-1.345       0.00621672          2.36505          112.501       NO       
    P000524_A_1-NOSTOPUOMI_V2_FEM_ST-1.346          0.01239          3.08766          112.473       NO       
    P000524_A_1-NOSTOPUOMI_V2_FEM_ST-1.347       0.00571504          3.15598          157.499       NO       
    P000524_A_1-NOSTOPUOMI_V2_FEM_ST-1.348        0.0581249           6.0458              90.       NO       
    P000524_A_1-NOSTOPUOMI_V2_FEM_ST-1.349         0.058289          5.59933              90.       NO       
    P000524_A_1-NOSTOPUOMI_V2_FEM_ST-1.350        0.0581249           6.0458              90.       NO       
    P000524_A_1-NOSTOPUOMI_V2_FEM_ST-1.351         0.180696          7.77794          93.4633       NO       
    P000524_A_1-NOSTOPUOMI_V2_FEM_ST-1.352       0.00618507          28.7411          112.499       NO       
    P000524_A_1-NOSTOPUOMI_V2_FEM_ST-1.353        0.0124003            38.95              90.       NO       
    P000524_A_1-NOSTOPUOMI_V2_FEM_ST-1.354        0.0581249          5.04245          90.9386       NO       
    P000524_A_1-NOSTOPUOMI_V2_FEM_ST-1.355        0.0581249           6.0458              90.       NO       
    P000524_A_1-NOSTOPUOMI_V2_FEM_ST-1.356        0.0581249          6.04891              90.       NO       
    P000524_A_1-NOSTOPUOMI_V2_FEM_ST-1.357        0.0581249          6.04891              90.       NO       
    P000524_A_1-NOSTOPUOMI_V2_FEM_ST-1.358        0.0581249          6.04891              90.       NO       
    P000524_A_1-NOSTOPUOMI_V2_FEM_ST-1.359        0.0581249           6.0458              90.       NO       
    P000524_A_1-NOSTOPUOMI_V2_FEM_ST-1.360        0.0124203          38.9126          89.6394       NO       
    P000524_A_1-NOSTOPUOMI_V2_FEM_ST-1.361        0.0123977           3.0909          112.447       NO       
    P000524_A_1-NOSTOPUOMI_V2_FEM_ST-1.362        0.0581249          5.04245          90.9386       NO       
    P000524_A_1-NOSTOPUOMI_V2_FEM_ST-1.363         0.058125          5.03872          92.3939       NO       
    P000524_A_1-NOSTOPUOMI_V2_FEM_ST-1.364       0.00621672          2.36505          112.501       NO       
    P000524_A_1-NOSTOPUOMI_V2_FEM_ST-1.365         0.058125           6.0458              90.       NO       
    P000524_A_1-NOSTOPUOMI_V2_FEM_ST-1.366        0.0581249          6.04891              90.       NO       
    P000524_A_1-NOSTOPUOMI_V2_FEM_ST-1.367        0.0581249           6.0458              90.       NO       
    P000524_A_1-NOSTOPUOMI_V2_FEM_ST-1.368         0.058125           6.0458              90.       NO       
    P000524_A_1-NOSTOPUOMI_V2_FEM_ST-1.369        0.0061851          28.7639          112.479       NO       
    P000524_A_1-NOSTOPUOMI_V2_FEM_ST-1.370         0.058289          5.59887              90.       NO       
    P000524_A_1-NOSTOPUOMI_V2_FEM_ST-1.371         0.058125          3.34544              90.       NO       
    P000524_A_1-NOSTOPUOMI_V2_FEM_ST-1.372       0.00571504          3.15598          157.499       NO       
    P000524_A_1-NOSTOPUOMI_V2_FEM_ST-1.373        0.0124003            38.95              90.       NO       
    P000524_A_1-NOSTOPUOMI_V2_FEM_ST-1.374        0.0581248          3.34543              90.       NO       
    P000524_A_1-NOSTOPUOMI_V2_FEM_ST-1.375         0.058125           3.3325          173.954       NO       
    P000524_A_1-NOSTOPUOMI_V2_FEM_ST-1.376        0.0581248           6.0458              90.       NO       
    P000524_A_1-NOSTOPUOMI_V2_FEM_ST-1.377      0.000155844          13.4373          143.811       NO       
    P000524_A_1-NOSTOPUOMI_V2_FEM_ST-1.378          0.01239          3.08766          112.473       NO       
    P000524_A_1-NOSTOPUOMI_V2_FEM_ST-1.379       0.00618505          28.7411          112.499       NO       
    P000524_A_1-NOSTOPUOMI_V2_FEM_ST-1.380       0.00571507          1.74124          176.844       NO       
    P000524_A_1-NOSTOPUOMI_V2_FEM_ST-1.381         0.058125          6.04581              90.       NO       
    P000524_A_1-NOSTOPUOMI_V2_FEM_ST-1.382         0.058125          6.04891              90.       NO       
    P000524_A_1-NOSTOPUOMI_V2_FEM_ST-1.383        0.0045413          1.79486          158.635       NO       
    P000524_A_1-NOSTOPUOMI_V2_FEM_ST-1.384        0.0582889          5.59933              90.       NO       
    P000524_A_1-NOSTOPUOMI_V2_FEM_ST-1.385        0.0581248          3.33249          173.954       NO       
    P000524_A_1-NOSTOPUOMI_V2_FEM_ST-1.386         0.058125           6.0458              90.       NO       
    P000524_A_1-NOSTOPUOMI_V2_FEM_ST-1.387         0.012371          38.8888          90.8705       NO       
    P000524_A_1-NOSTOPUOMI_V2_FEM_ST-1.388        0.0061851          28.7639          112.479       NO       
    P000524_A_1-NOSTOPUOMI_V2_FEM_ST-1.389        0.0581248          6.04891              90.       NO       
    P000524_A_1-NOSTOPUOMI_V2_FEM_ST-1.390         0.058125          5.04245          90.9386       NO       
    P000524_A_1-NOSTOPUOMI_V2_FEM_ST-1.391         0.012371          38.8236          90.8705       NO       
    P000524_A_1-NOSTOPUOMI_V2_FEM_ST-1.392         0.058125           3.3325          173.954       NO       
    P000524_A_1-NOSTOPUOMI_V2_FEM_ST-1.393         0.058125           3.3325          173.954       NO       
    P000524_A_1-NOSTOPUOMI_V2_FEM_ST-1.394        0.0581249          3.33249          173.954       NO       
    P000524_A_1-NOSTOPUOMI_V2_FEM_ST-1.395         0.058125          3.34544              90.       NO       
    P000524_A_1-NOSTOPUOMI_V2_FEM_ST-1.396        0.0581248           6.0458              90.       NO       
    P000524_A_1-NOSTOPUOMI_V2_FEM_ST-1.397        0.0581248          5.03872          92.3939       NO       
    P000524_A_1-NOSTOPUOMI_V2_FEM_ST-1.398          0.01239          3.08766          112.473       NO       
    P000524_A_1-NOSTOPUOMI_V2_FEM_ST-1.399        0.0124003          38.8236          90.4521       NO       
    P000524_A_1-NOSTOPUOMI_V2_FEM_ST-1.400        0.0124003          38.8236          90.4521       NO       
    P000524_A_1-NOSTOPUOMI_V2_FEM_ST-1.401         0.058125          6.04891              90.       NO       
    P000524_A_1-NOSTOPUOMI_V2_FEM_ST-1.402        0.0581248           6.0458              90.       NO       
    P000524_A_1-NOSTOPUOMI_V2_FEM_ST-1.403        0.0581248           6.0458              90.       NO       
    P000524_A_1-NOSTOPUOMI_V2_FEM_ST-1.404        0.0581248          3.33249          173.954       NO       
    P000524_A_1-NOSTOPUOMI_V2_FEM_ST-1.405         0.180696          9.98016           91.884       NO       
    P000524_A_1-NOSTOPUOMI_V2_FEM_ST-1.406         0.058125           6.0458              90.       NO       
    P000524_A_1-NOSTOPUOMI_V2_FEM_ST-1.407        0.0517228          6.81677          92.4387       NO       
    P000524_A_1-NOSTOPUOMI_V2_FEM_ST-1.408      1.16967E-05          3.78664          140.645       NO       
    P000524_A_1-NOSTOPUOMI_V2_FEM_ST-1.409         0.058125          5.04245          90.9386       NO       
    P000524_A_1-NOSTOPUOMI_V2_FEM_ST-1.410       0.00620012          28.6754          112.486       NO       
    P000524_A_1-NOSTOPUOMI_V2_FEM_ST-1.411      4.22491E-05          4.92797          167.739       NO       
    P000524_A_1-NOSTOPUOMI_V2_FEM_ST-1.412        0.0581249          6.04891              90.       NO       
    P000524_A_1-NOSTOPUOMI_V2_FEM_ST-1.413      1.97931E-05          2.80771           128.24       NO       
    P000524_A_1-NOSTOPUOMI_V2_FEM_ST-1.414        0.0581249          3.34544              90.       NO       
    P000524_A_1-NOSTOPUOMI_V2_FEM_ST-1.415       0.00616016          28.6747          112.418       NO       
    P000524_A_1-NOSTOPUOMI_V2_FEM_ST-1.417       0.00621053          28.7257           112.52       NO       
    P000524_A_1-NOSTOPUOMI_V2_FEM_ST-1.418        0.0591439          5.18414              90.       NO       
    P000524_A_1-NOSTOPUOMI_V2_FEM_ST-1.419      4.52868E-05          5.11779           170.66       NO       
    P000524_A_1-NOSTOPUOMI_V2_FEM_ST-1.420        0.0124203          38.9126          89.6394       NO       
    P000524_A_1-NOSTOPUOMI_V2_FEM_ST-1.421      5.90048E-06          2.09203           123.86       NO       
    P000524_A_1-NOSTOPUOMI_V2_FEM_ST-1.422       0.00620405          28.7285          112.499       NO       
    P000524_A_1-NOSTOPUOMI_V2_FEM_ST-1.423        0.0589168          5.31927              90.       NO       
    P000524_A_1-NOSTOPUOMI_V2_FEM_ST-1.424        0.0124081          3.08975          112.418       NO       
    P000524_A_1-NOSTOPUOMI_V2_FEM_ST-1.425        0.0576564          5.31856              90.       NO       
    P000524_A_1-NOSTOPUOMI_V2_FEM_ST-1.426      0.000441518          7.49027          107.164       NO       
    P000524_A_1-NOSTOPUOMI_V2_FEM_ST-1.427        0.0591439          3.34268              90.       NO       
    P000524_A_1-NOSTOPUOMI_V2_FEM_ST-1.428        0.0589168          6.23308          90.0874       NO       
    P000524_A_1-NOSTOPUOMI_V2_FEM_ST-1.429         0.057864          6.15795              90.       NO       
    P000524_A_1-NOSTOPUOMI_V2_FEM_ST-1.430          0.18424          8.81967           92.792       NO       
    P000524_A_1-NOSTOPUOMI_V2_FEM_ST-1.431        0.0576564          5.30956          93.3283       NO       
    P000524_A_1-NOSTOPUOMI_V2_FEM_ST-1.432       0.00620405          28.7365          112.506       NO       
    P000524_A_1-NOSTOPUOMI_V2_FEM_ST-1.433       0.00621015          28.6691          112.613       NO       
    P000524_A_1-NOSTOPUOMI_V2_FEM_ST-1.434        0.0573955          3.34268              90.       NO       
    P000524_A_1-NOSTOPUOMI_V2_FEM_ST-1.435        0.0576564           6.2716              90.       NO       
    P000524_A_1-NOSTOPUOMI_V2_FEM_ST-1.436        0.0573955          3.34268              90.       NO       
    P000524_A_1-NOSTOPUOMI_V2_FEM_ST-1.437         0.057079           3.3267          95.6015       NO       
    P000524_A_1-NOSTOPUOMI_V2_FEM_ST-1.438        0.0124081          3.20896           106.27       NO       
    P000524_A_1-NOSTOPUOMI_V2_FEM_ST-1.439        0.0586344          5.46162              90.       NO       
    P000524_A_1-NOSTOPUOMI_V2_FEM_ST-1.440        0.0567045          3.34268              90.       NO       
    P000524_A_1-NOSTOPUOMI_V2_FEM_ST-1.441        0.0582943          5.61177              90.       NO       
    P000524_A_1-NOSTOPUOMI_V2_FEM_ST-1.442        0.0573955          5.45165          93.3275       NO       
    P000524_A_1-NOSTOPUOMI_V2_FEM_ST-1.443       0.00620405          28.6747          112.512       NO       
    P000524_A_1-NOSTOPUOMI_V2_FEM_ST-1.444          0.18424          8.29168          92.9975       NO       
    P000524_A_1-NOSTOPUOMI_V2_FEM_ST-1.445         0.057079          6.52035              90.       NO       
    P000524_A_1-NOSTOPUOMI_V2_FEM_ST-1.446        0.0567045          6.66513              90.       NO       
    P000524_A_1-NOSTOPUOMI_V2_FEM_ST-1.447        0.0582943          6.47413              90.       NO       
    P000524_A_1-NOSTOPUOMI_V2_FEM_ST-1.448        0.0578942          6.61019              90.       NO       
    P000524_A_1-NOSTOPUOMI_V2_FEM_ST-1.449        0.0570789          6.52849              90.       NO       
    P000524_A_1-NOSTOPUOMI_V2_FEM_ST-1.450        0.0570789          3.34268              90.       NO       
    P000524_A_1-NOSTOPUOMI_V2_FEM_ST-1.451         0.057432          5.92873          93.2276       NO       
    P000524_A_1-NOSTOPUOMI_V2_FEM_ST-1.452        0.0528085          6.70723          93.4296       NO       
    P000524_A_1-NOSTOPUOMI_V2_FEM_ST-1.453       0.00620405          28.6747          112.512       NO       
    P000524_A_1-NOSTOPUOMI_V2_FEM_ST-1.454        0.0562697          6.80199              90.       NO       
    P000524_A_1-NOSTOPUOMI_V2_FEM_ST-1.455        0.0562697          5.93738              90.       NO       
    P000524_A_1-NOSTOPUOMI_V2_FEM_ST-1.456         0.057432           6.7552              90.       NO       
    P000524_A_1-NOSTOPUOMI_V2_FEM_ST-1.457        0.0557726          6.10484          93.3237       NO       
    P000524_A_1-NOSTOPUOMI_V2_FEM_ST-1.458        0.0578942          5.77037              90.       NO       
    P000524_A_1-NOSTOPUOMI_V2_FEM_ST-1.459        0.0578942          3.32609          95.7062       NO       
    P000524_A_1-NOSTOPUOMI_V2_FEM_ST-1.460        0.0567045           6.6567              90.       NO       
    P000524_A_1-NOSTOPUOMI_V2_FEM_ST-1.461        0.0567045          3.34268              90.       NO       
    P000524_A_1-NOSTOPUOMI_V2_FEM_ST-1.462        0.0562698          6.80199              90.       NO       
    P000524_A_1-NOSTOPUOMI_V2_FEM_ST-1.463        0.0155238          6.08267          97.4333       NO       
    P000524_A_1-NOSTOPUOMI_V2_FEM_ST-1.464        0.0557726          6.95703              90.       NO       
    P000524_A_1-NOSTOPUOMI_V2_FEM_ST-1.465        0.0124081          38.8872          90.3606       NO       
    P000524_A_1-NOSTOPUOMI_V2_FEM_ST-1.466         0.057432          3.34268              90.       NO       
    P000524_A_1-NOSTOPUOMI_V2_FEM_ST-1.467        0.0569053          6.90997              90.       NO       
    P000524_A_1-NOSTOPUOMI_V2_FEM_ST-1.468        0.0562698          5.93738              90.       NO       
    P000524_A_1-NOSTOPUOMI_V2_FEM_ST-1.469        0.0557727          3.32371          96.1048       NO       
    P000524_A_1-NOSTOPUOMI_V2_FEM_ST-1.470       0.00620404          28.6747          112.512       NO       
    P000524_A_1-NOSTOPUOMI_V2_FEM_ST-1.471        0.0563118          6.29476          93.2194       NO       
    P000524_A_1-NOSTOPUOMI_V2_FEM_ST-1.472        0.0552108          6.29325          93.3225       NO       
    P000524_A_1-NOSTOPUOMI_V2_FEM_ST-1.473        0.0124041          3.21043          106.276       NO       
    P000524_A_1-NOSTOPUOMI_V2_FEM_ST-1.474        0.0552108          7.12275              90.       NO       
    P000524_A_1-NOSTOPUOMI_V2_FEM_ST-1.475        0.0569053          6.10628          93.2236       NO       
    P000524_A_1-NOSTOPUOMI_V2_FEM_ST-1.476        0.0569053          3.34268              90.       NO       
    P000524_A_1-NOSTOPUOMI_V2_FEM_ST-1.477        0.0540681          7.17124          90.9423       NO       
    P000524_A_1-NOSTOPUOMI_V2_FEM_ST-1.478        0.0563118          3.34268              90.       NO       
    P000524_A_1-NOSTOPUOMI_V2_FEM_ST-1.479        0.0552107          7.12275              90.       NO       
    P000524_A_1-NOSTOPUOMI_V2_FEM_ST-1.480       0.00620407          28.6395          112.667       NO       
    P000524_A_1-NOSTOPUOMI_V2_FEM_ST-1.481        0.0545821          7.30018              90.       NO       
    P000524_A_1-NOSTOPUOMI_V2_FEM_ST-1.482          0.05565           7.2526              90.       NO       
    P000524_A_1-NOSTOPUOMI_V2_FEM_ST-1.483        0.0545821          6.49361          93.3212       NO       
    P000524_A_1-NOSTOPUOMI_V2_FEM_ST-1.484        0.0124081          38.8263          90.3606       NO       
    P000524_A_1-NOSTOPUOMI_V2_FEM_ST-1.485        0.0534715          7.34898          90.9423       NO       
    P000524_A_1-NOSTOPUOMI_V2_FEM_ST-1.486        0.0534715          3.34268          90.0549       NO       
    P000524_A_1-NOSTOPUOMI_V2_FEM_ST-1.487        0.0563118          7.07542              90.       NO       
    P000524_A_1-NOSTOPUOMI_V2_FEM_ST-1.488       0.00620403          28.6747          112.512       NO       
    P000524_A_1-NOSTOPUOMI_V2_FEM_ST-1.489        0.0545823          6.49361          93.3212       NO       
    P000524_A_1-NOSTOPUOMI_V2_FEM_ST-1.490        0.0531171          3.31819           96.935       NO       
    P000524_A_1-NOSTOPUOMI_V2_FEM_ST-1.491        0.0545823          3.34268              90.       NO       
    P000524_A_1-NOSTOPUOMI_V2_FEM_ST-1.492        0.0538849          3.34268              90.       NO       
    P000524_A_1-NOSTOPUOMI_V2_FEM_ST-1.493      3.70861E-05          4.86837          171.112       NO       
    P000524_A_1-NOSTOPUOMI_V2_FEM_ST-1.494        0.0124003          38.8236          90.4521       NO       
    P000524_A_1-NOSTOPUOMI_V2_FEM_ST-1.495        0.0123702          38.8827          90.8267       NO       
    P000524_A_1-NOSTOPUOMI_V2_FEM_ST-1.496        0.0538851          7.49049              90.       NO       
    P000524_A_1-NOSTOPUOMI_V2_FEM_ST-1.497        0.0531171           6.9467              90.       NO       
    P000524_A_1-NOSTOPUOMI_V2_FEM_ST-1.498        0.0541127          7.64694              90.       NO       
    P000524_A_1-NOSTOPUOMI_V2_FEM_ST-1.499       0.00621674          2.36505          112.501       NO       
    P000524_A_1-NOSTOPUOMI_V2_FEM_ST-1.500        0.0124081          38.8263          90.3606       NO       
    P000524_A_1-NOSTOPUOMI_V2_FEM_ST-1.501        0.0322155          8.26402          93.8643       NO       
    P000524_A_1-NOSTOPUOMI_V2_FEM_ST-1.502        0.0541127          6.94764              90.       NO       
    P000524_A_1-NOSTOPUOMI_V2_FEM_ST-1.503        0.0538849          6.70709          93.3198       NO       
    P000524_A_1-NOSTOPUOMI_V2_FEM_ST-1.504        0.0538849          7.49049              90.       NO       
    P000524_A_1-NOSTOPUOMI_V2_FEM_ST-1.505       0.00234035          18.0503          102.746       NO       
    P000524_A_1-NOSTOPUOMI_V2_FEM_ST-1.506        0.0522772          7.91525              90.       NO       
    P000524_A_1-NOSTOPUOMI_V2_FEM_ST-1.507        0.0591439          6.11262              90.       NO       
    P000524_A_1-NOSTOPUOMI_V2_FEM_ST-1.508       0.00618507          28.7639          112.479       NO       
    P000524_A_1-NOSTOPUOMI_V2_FEM_ST-1.509        0.0573955          6.40007              90.       NO       
    P000524_A_1-NOSTOPUOMI_V2_FEM_ST-1.510         0.057079          6.52035              90.       NO       
    P000524_A_1-NOSTOPUOMI_V2_FEM_ST-1.511        0.0567045           6.6567              90.       NO       
    P000524_A_1-NOSTOPUOMI_V2_FEM_ST-1.512      0.000452979          6.62381          169.915       NO       
    P000524_A_1-NOSTOPUOMI_V2_FEM_ST-1.513        0.0562697          5.92735          93.3248       NO       
    P000524_A_1-NOSTOPUOMI_V2_FEM_ST-1.514        0.0557726          6.10484          93.3237       NO       
    P000524_A_1-NOSTOPUOMI_V2_FEM_ST-1.515        0.0552108          7.12275              90.       NO       
    P000524_A_1-NOSTOPUOMI_V2_FEM_ST-1.516       9.7675E-07           2.1807          176.879       NO       
    P000524_A_1-NOSTOPUOMI_V2_FEM_ST-1.517        0.0545821          3.32121          96.4936       NO       
    P000524_A_1-NOSTOPUOMI_V2_FEM_ST-1.518       0.00621672          2.36505          112.501       NO       
    P000524_A_1-NOSTOPUOMI_V2_FEM_ST-1.519      0.000455857          5.04245          167.961       NO       
    P000524_A_1-NOSTOPUOMI_V2_FEM_ST-1.520         0.012371          38.8888          90.8705       NO       
    P000524_A_1-NOSTOPUOMI_V2_FEM_ST-1.521        0.0061851          28.7639          112.479       NO       
    P000524_A_1-NOSTOPUOMI_V2_FEM_ST-1.522      4.47007E-05          4.99802          167.568       NO       
    P000524_A_1-NOSTOPUOMI_V2_FEM_ST-1.523         0.056363          3.34268          90.0549       NO       
    P000524_A_1-NOSTOPUOMI_V2_FEM_ST-1.524         0.056363          6.32621          90.9423       NO       
    P000524_A_1-NOSTOPUOMI_V2_FEM_ST-1.525         0.116379          7.45616          92.4851       NO       
    P000524_A_1-NOSTOPUOMI_V2_FEM_ST-1.526      5.85867E-06          2.61794          140.832       NO       
    P000524_A_1-NOSTOPUOMI_V2_FEM_ST-1.527       0.00618508          28.7639          112.479       NO       
    P000524_A_1-NOSTOPUOMI_V2_FEM_ST-1.528        0.0124211          38.8439          90.7016       NO       
    P000524_A_1-NOSTOPUOMI_V2_FEM_ST-1.529        0.0124203          38.9126          89.6394       NO       
    P000524_A_1-NOSTOPUOMI_V2_FEM_ST-1.530        0.0124081          3.20896           106.27       NO       
    P000524_A_1-NOSTOPUOMI_V2_FEM_ST-1.531        0.0124081          38.8263          90.3606       NO       
    P000524_A_1-NOSTOPUOMI_V2_FEM_ST-1.532         0.057864          3.32904          95.1747       NO       
    P000524_A_1-NOSTOPUOMI_V2_FEM_ST-1.533       0.00621672          2.36505          112.501       NO       
    P000524_A_1-NOSTOPUOMI_V2_FEM_ST-1.534        0.0561222          6.43904          90.9423       NO       
    P000524_A_1-NOSTOPUOMI_V2_FEM_ST-1.535        0.0124003          38.8236          90.4521       NO       
    P000524_A_1-NOSTOPUOMI_V2_FEM_ST-1.536         0.116379           6.6239          94.4001       NO       
    P000524_A_1-NOSTOPUOMI_V2_FEM_ST-1.537        0.0123901          3.08767          112.473       NO       
    P000524_A_1-NOSTOPUOMI_V2_FEM_ST-1.538       0.00620406          2.36618          112.499       NO       
    P000524_A_1-NOSTOPUOMI_V2_FEM_ST-1.539       0.00620403          28.7364          112.506       NO       
    P000524_A_1-NOSTOPUOMI_V2_FEM_ST-1.540        0.0576564          5.30956          93.3283       NO       
    P000524_A_1-NOSTOPUOMI_V2_FEM_ST-1.541       0.00621672          2.36505          112.501       NO       
    P000524_A_1-NOSTOPUOMI_V2_FEM_ST-1.542         0.056363          5.31927          90.0874       NO       
    P000524_A_1-NOSTOPUOMI_V2_FEM_ST-1.543        0.0558278          3.34268          90.0549       NO       
    P000524_A_1-NOSTOPUOMI_V2_FEM_ST-1.544       0.00616486           28.792          112.453       NO       
    P000524_A_1-NOSTOPUOMI_V2_FEM_ST-1.545        0.0123702          38.8412          91.3406       NO       
    P000524_A_1-NOSTOPUOMI_V2_FEM_ST-1.546        0.0570789          5.61101              90.       NO       
    P000524_A_1-NOSTOPUOMI_V2_FEM_ST-1.547       0.00620406          28.6747          112.512       NO       
    P000524_A_1-NOSTOPUOMI_V2_FEM_ST-1.548        0.0124041          3.21042          106.276       NO       
    P000524_A_1-NOSTOPUOMI_V2_FEM_ST-1.549      0.000450136          5.04245          167.931       NO       
    P000524_A_1-NOSTOPUOMI_V2_FEM_ST-1.550       0.00620405          28.6747          112.512       NO       
    P000524_A_1-NOSTOPUOMI_V2_FEM_ST-1.551        0.0573955          3.34268              90.       NO       
    P000524_A_1-NOSTOPUOMI_V2_FEM_ST-1.552        0.0561222          3.32723          95.5068       NO       
    P000524_A_1-NOSTOPUOMI_V2_FEM_ST-1.553        0.0124003            38.95              90.       NO       
    P000524_A_1-NOSTOPUOMI_V2_FEM_ST-1.554       0.00620013          28.6754          112.486       NO       
    P000524_A_1-NOSTOPUOMI_V2_FEM_ST-1.555        0.0554774          6.70421          90.9423       NO       
    P000524_A_1-NOSTOPUOMI_V2_FEM_ST-1.556        0.0124203          38.9126          89.6394       NO       
    P000524_A_1-NOSTOPUOMI_V2_FEM_ST-1.557       0.00618508          28.7639          112.479       NO       
    P000524_A_1-NOSTOPUOMI_V2_FEM_ST-1.558        0.0123701          38.8827          90.8267       NO       
    P000524_A_1-NOSTOPUOMI_V2_FEM_ST-1.559       0.00620404          2.36618          112.499       NO       
    P000524_A_1-NOSTOPUOMI_V2_FEM_ST-1.560        0.0124081          38.8263          90.3606       NO       
    P000524_A_1-NOSTOPUOMI_V2_FEM_ST-1.561       0.00620015          28.6845          112.587       NO       
    P000524_A_1-NOSTOPUOMI_V2_FEM_ST-1.562        0.0573955           6.3922              90.       NO       
    P000524_A_1-NOSTOPUOMI_V2_FEM_ST-1.563        0.0570789          6.52849              90.       NO       
    P000524_A_1-NOSTOPUOMI_V2_FEM_ST-1.564        0.0567045          5.75985          93.3258       NO       
    P000524_A_1-NOSTOPUOMI_V2_FEM_ST-1.565        0.0581249           6.0458              90.       NO       
    P000524_A_1-NOSTOPUOMI_V2_FEM_ST-1.566        0.0124081          38.8263          90.3606       NO       
    P000524_A_1-NOSTOPUOMI_V2_FEM_ST-1.567       0.00618508          28.7639          112.479       NO       
    P000524_A_1-NOSTOPUOMI_V2_FEM_ST-1.568        0.0124041          3.21042          106.276       NO       
    P000524_A_1-NOSTOPUOMI_V2_FEM_ST-1.569         0.058125           3.3325          173.954       NO       
    P000524_A_1-NOSTOPUOMI_V2_FEM_ST-1.570        0.0567045          3.34268              90.       NO       
    P000524_A_1-NOSTOPUOMI_V2_FEM_ST-1.571       0.00617384          2.36603          112.501       NO       
    P000524_A_1-NOSTOPUOMI_V2_FEM_ST-1.572        0.0562698          6.80199              90.       NO       
    P000524_A_1-NOSTOPUOMI_V2_FEM_ST-1.573       0.00621672          2.36505          112.501       NO       
    P000524_A_1-NOSTOPUOMI_V2_FEM_ST-1.574      3.77146E-05          5.03607          172.254       NO       
    P000524_A_1-NOSTOPUOMI_V2_FEM_ST-1.575        0.0061851          28.7639          112.479       NO       
    P000524_A_1-NOSTOPUOMI_V2_FEM_ST-1.576        0.0124081          38.8263          90.3606       NO       
    P000524_A_1-NOSTOPUOMI_V2_FEM_ST-1.577        0.0545997          7.00519          90.9423       NO       
    P000524_A_1-NOSTOPUOMI_V2_FEM_ST-1.578        0.0562698          3.34268              90.       NO       
    P000524_A_1-NOSTOPUOMI_V2_FEM_ST-1.579       0.00621053          28.7257           112.52       NO       
    P000524_A_1-NOSTOPUOMI_V2_FEM_ST-1.580       0.00621056          28.7091          112.501       NO       
    P000524_A_1-NOSTOPUOMI_V2_FEM_ST-1.581        0.0550688          3.34268          90.0549       NO       
    P000524_A_1-NOSTOPUOMI_V2_FEM_ST-1.582        0.0557727          3.32371          96.1048       NO       
    P000524_A_1-NOSTOPUOMI_V2_FEM_ST-1.583        0.0124041          3.21043          106.276       NO       
    P000524_A_1-NOSTOPUOMI_V2_FEM_ST-1.584       0.00620406          2.36618          112.499       NO       
    P000524_A_1-NOSTOPUOMI_V2_FEM_ST-1.585        0.0581249           3.3325          173.954       NO       
    P000524_A_1-NOSTOPUOMI_V2_FEM_ST-1.586        0.0534715          7.34898          90.9423       NO       
    P000524_A_1-NOSTOPUOMI_V2_FEM_ST-1.587        0.0124202          38.9126          89.6394       NO       
    P000524_A_1-NOSTOPUOMI_V2_FEM_ST-1.588       0.00620406          28.6747          112.512       NO       
    P000524_A_1-NOSTOPUOMI_V2_FEM_ST-1.589        0.0124003          38.8237          90.4521       NO       
    P000524_A_1-NOSTOPUOMI_V2_FEM_ST-1.590        0.0557727          6.11517              90.       NO       
    P000524_A_1-NOSTOPUOMI_V2_FEM_ST-1.591       0.00620013          28.6754          112.486       NO       
    P000524_A_1-NOSTOPUOMI_V2_FEM_ST-1.592       0.00621054          28.7257           112.52       NO       
    P000524_A_1-NOSTOPUOMI_V2_FEM_ST-1.593        0.0552107          6.29325          93.3225       NO       
    P000524_A_1-NOSTOPUOMI_V2_FEM_ST-1.594        0.0124041          3.21043          106.276       NO       
    P000524_A_1-NOSTOPUOMI_V2_FEM_ST-1.595        0.0545823          6.49361          93.3212       NO       
    P000524_A_1-NOSTOPUOMI_V2_FEM_ST-1.596        0.0061851          28.7639          112.479       NO       
    P000524_A_1-NOSTOPUOMI_V2_FEM_ST-1.597        0.0545823          3.34268              90.       NO       
    P000524_A_1-NOSTOPUOMI_V2_FEM_ST-1.598        0.0124003            38.95              90.       NO       
    P000524_A_1-NOSTOPUOMI_V2_FEM_ST-1.599       0.00621055          28.7091          112.501       NO       
    P000524_A_1-NOSTOPUOMI_V2_FEM_ST-1.600        0.0123977           3.0909          112.447       NO       
    P000524_A_1-NOSTOPUOMI_V2_FEM_ST-1.601        0.0124081          38.8263          90.3606       NO       
    P000524_A_1-NOSTOPUOMI_V2_FEM_ST-1.602       0.00620406          28.6395          112.667       NO       
    P000524_A_1-NOSTOPUOMI_V2_FEM_ST-1.603        0.0123728          3.21067          106.311       NO       
    P000524_A_1-NOSTOPUOMI_V2_FEM_ST-1.604       0.00617383          2.36602          112.501       NO       
    P000524_A_1-NOSTOPUOMI_V2_FEM_ST-1.605        0.0123701          38.8412          91.3406       NO       
    P000524_A_1-NOSTOPUOMI_V2_FEM_ST-1.606        0.0124211          38.8439          90.7016       NO       
    P000524_A_1-NOSTOPUOMI_V2_FEM_ST-1.607      0.000441518           12.425          107.712       NO       
    P000524_A_1-NOSTOPUOMI_V2_FEM_ST-1.608      0.000124355          1.61807           135.65       NO       
    P000524_A_1-NOSTOPUOMI_V2_FEM_ST-1.609       0.00620403          2.36618          112.499       NO       
    P000524_A_1-NOSTOPUOMI_V2_FEM_ST-1.610       0.00432438           8.2698          101.061       NO       
    P000524_A_1-NOSTOPUOMI_V2_FEM_ST-1.611        0.0522772          3.34268              90.       NO       
    P000524_A_1-NOSTOPUOMI_V2_FEM_ST-1.612        0.0124081          38.8872          90.3606       NO       
    P000524_A_1-NOSTOPUOMI_V2_FEM_ST-1.613       0.00616484           28.792          112.453       NO       
    P000524_A_1-NOSTOPUOMI_V2_FEM_ST-1.614        0.0520764          6.94764           90.114       NO       
    P000524_A_1-NOSTOPUOMI_V2_FEM_ST-1.615          0.01239          3.08766          112.473       NO       
    P000524_A_1-NOSTOPUOMI_V2_FEM_ST-1.616        0.0124081          38.8263          90.3606       NO       
    P000524_A_1-NOSTOPUOMI_V2_FEM_ST-1.617       0.00104332           2.8729          109.429       NO       
    P000524_A_1-NOSTOPUOMI_V2_FEM_ST-1.618        0.0549173          7.44266              90.       NO       
    P000524_A_1-NOSTOPUOMI_V2_FEM_ST-1.619          0.12971          5.55853          92.4454       NO       
    P000524_A_1-NOSTOPUOMI_V2_FEM_ST-1.620       0.00621053          28.7257           112.52       NO       
    P000524_A_1-NOSTOPUOMI_V2_FEM_ST-1.621        0.0528085          3.34268          90.0549       NO       
    P000524_A_1-NOSTOPUOMI_V2_FEM_ST-1.622        0.0581249          6.04891              90.       NO       
    P000524_A_1-NOSTOPUOMI_V2_FEM_ST-1.623        0.0123702          38.8412          91.3406       NO       
    P000524_A_1-NOSTOPUOMI_V2_FEM_ST-1.624      0.000450136          5.04245          167.931       NO       
    P000524_A_1-NOSTOPUOMI_V2_FEM_ST-1.625       0.00620013          28.6754          112.486       NO       
    P000524_A_1-NOSTOPUOMI_V2_FEM_ST-1.626       0.00617385          2.36603          112.501       NO       
    P000524_A_1-NOSTOPUOMI_V2_FEM_ST-1.627        0.0581249           6.0458              90.       NO       
    P000524_A_1-NOSTOPUOMI_V2_FEM_ST-1.628      0.000452979          6.62381          169.915       NO       
    P000524_A_1-NOSTOPUOMI_V2_FEM_ST-1.629        0.0123728          3.21068          106.311       NO       
    P000524_A_1-NOSTOPUOMI_V2_FEM_ST-1.630        0.0124211          38.8439          90.7016       NO       
    P000524_A_1-NOSTOPUOMI_V2_FEM_ST-1.631         0.012371          38.8888          90.8705       NO       
    P000524_A_1-NOSTOPUOMI_V2_FEM_ST-1.632         0.058125           3.3325          173.954       NO       
    P000524_A_1-NOSTOPUOMI_V2_FEM_ST-1.633        0.0123728          3.21067          106.311       NO       
    P000524_A_1-NOSTOPUOMI_V2_FEM_ST-1.634       0.00618549          28.6132          112.719       NO       
    P000524_A_1-NOSTOPUOMI_V2_FEM_ST-1.635        0.0581249          6.04891              90.       NO       
    P000524_A_1-NOSTOPUOMI_V2_FEM_ST-1.636        0.0578929          6.04538          90.9386       NO       
    P000524_A_1-NOSTOPUOMI_V2_FEM_ST-1.637          0.01239          3.08766          112.473       NO       
    P000524_A_1-NOSTOPUOMI_V2_FEM_ST-1.638       0.00621674          2.36505          112.501       NO       
    P000524_A_1-NOSTOPUOMI_V2_FEM_ST-1.639        0.0123977           3.0909          112.447       NO       
    P000524_A_1-NOSTOPUOMI_V2_FEM_ST-1.640        0.0581248          6.04891              90.       NO       
    P000524_A_1-NOSTOPUOMI_V2_FEM_ST-1.641        0.0061855          28.6754          112.486       NO       
    P000524_A_1-NOSTOPUOMI_V2_FEM_ST-1.642       0.00616484           28.792          112.453       NO       
    P000524_A_1-NOSTOPUOMI_V2_FEM_ST-1.643        0.0124211          38.9077          89.5479       NO       
    P000524_A_1-NOSTOPUOMI_V2_FEM_ST-1.644        0.0540681          3.32216          96.3484       NO       
    P000524_A_1-NOSTOPUOMI_V2_FEM_ST-1.645        0.0581249           6.0458              90.       NO       
    P000524_A_1-NOSTOPUOMI_V2_FEM_ST-1.646       0.00620015          28.6754          112.486       NO       
    P000524_A_1-NOSTOPUOMI_V2_FEM_ST-1.647        0.0534715          3.34268          90.0549       NO       
    P000524_A_1-NOSTOPUOMI_V2_FEM_ST-1.648        0.0123977           3.0909          112.447       NO       
    P000524_A_1-NOSTOPUOMI_V2_FEM_ST-1.649         0.058125          6.04891              90.       NO       
    P000524_A_1-NOSTOPUOMI_V2_FEM_ST-1.650        0.0124003          38.8237          90.4521       NO       
    P000524_A_1-NOSTOPUOMI_V2_FEM_ST-1.651      0.000452981           6.6238          169.915       NO       
    P000524_A_1-NOSTOPUOMI_V2_FEM_ST-1.652      0.000450137          5.04246          167.931       NO       
    P000524_A_1-NOSTOPUOMI_V2_FEM_ST-1.653      0.000450137          5.04246          167.931       NO       
    P000524_A_1-NOSTOPUOMI_V2_FEM_ST-1.654       0.00621058          28.7091          112.501       NO       
    P000524_A_1-NOSTOPUOMI_V2_FEM_ST-1.655        0.0004559          6.04892          169.915       NO       
    P000524_A_1-NOSTOPUOMI_V2_FEM_ST-1.656       0.00620017          28.6845          112.587       NO       
    P000524_A_1-NOSTOPUOMI_V2_FEM_ST-1.657       0.00045586          5.04246          167.961       NO       
    P000524_A_1-NOSTOPUOMI_V2_FEM_ST-1.658      7.81051E-05          15.2875          130.614       NO       
    P000524_A_1-NOSTOPUOMI_V2_FEM_ST-1.660         0.129093          5.71559          93.6338       NO       
    P000524_A_1-NOSTOPUOMI_V2_FEM_ST-1.662       0.00618548          28.6132          112.719       NO       
    P000524_A_1-NOSTOPUOMI_V2_FEM_ST-1.663      6.35439E-05          3.00134          170.817       NO       
    P000524_A_1-NOSTOPUOMI_V2_FEM_ST-1.664      1.99973E-05          5.82696          118.679       NO       
    P000524_A_1-NOSTOPUOMI_V2_FEM_ST-1.665         0.110846          5.14773           90.493       NO       
    P000524_A_1-NOSTOPUOMI_V2_FEM_ST-1.666       0.00620016          28.6845          112.587       NO       
    P000524_A_1-NOSTOPUOMI_V2_FEM_ST-1.667       0.00621053          28.7257           112.52       NO       
    P000524_A_1-NOSTOPUOMI_V2_FEM_ST-1.668      1.86259E-05          14.6806            171.4       NO       
    P000524_A_1-NOSTOPUOMI_V2_FEM_ST-1.670        0.0123625          3.08584          112.498       NO       
    P000524_A_1-NOSTOPUOMI_V2_FEM_ST-1.671         0.057893          6.03428          90.9423       NO       
    P000524_A_1-NOSTOPUOMI_V2_FEM_ST-1.672        0.0123701          38.8827          90.8267       NO       
    P000524_A_1-NOSTOPUOMI_V2_FEM_ST-1.673      5.88031E-06          3.88353          161.401       NO       
    P000524_A_1-NOSTOPUOMI_V2_FEM_ST-1.674       0.00618549          28.6754          112.486       NO       
    P000524_A_1-NOSTOPUOMI_V2_FEM_ST-1.675      5.89982E-06          2.09197           123.86       NO       
    P000524_A_1-NOSTOPUOMI_V2_FEM_ST-1.676        0.0123297          38.8133          92.0571       NO       
    P000524_A_1-NOSTOPUOMI_V2_FEM_ST-1.677         0.012371          38.8236          90.8705       NO       
    P000524_A_1-NOSTOPUOMI_V2_FEM_ST-1.678       0.00621674          2.36505          112.501       NO       
    P000524_A_1-NOSTOPUOMI_V2_FEM_ST-1.679        0.0578929          3.32616          173.966       NO       
    P000524_A_1-NOSTOPUOMI_V2_FEM_ST-1.680       0.00620405          2.36618          112.499       NO       
    P000524_A_1-NOSTOPUOMI_V2_FEM_ST-1.681       0.00618509          28.7639          112.479       NO       
    P000524_A_1-NOSTOPUOMI_V2_FEM_ST-1.682        0.0123702          38.8827          90.8267       NO       
    P000524_A_1-NOSTOPUOMI_V2_FEM_ST-1.683         0.012371          38.8888          90.8705       NO       
    P000524_A_1-NOSTOPUOMI_V2_FEM_ST-1.684        0.0563118          7.07542              90.       NO       
    P000524_A_1-NOSTOPUOMI_V2_FEM_ST-1.685        0.0124003            38.95              90.       NO       
    P000524_A_1-NOSTOPUOMI_V2_FEM_ST-1.686        0.0123854          3.20673           106.32       NO       
    P000524_A_1-NOSTOPUOMI_V2_FEM_ST-1.687        0.0123297          38.8133          92.0571       NO       
    P000524_A_1-NOSTOPUOMI_V2_FEM_ST-1.688        0.0578929          3.32616          173.966       NO       
    P000524_A_1-NOSTOPUOMI_V2_FEM_ST-1.689       0.00620406          2.36618          112.499       NO       
    P000524_A_1-NOSTOPUOMI_V2_FEM_ST-1.690       0.00621056          28.7091          112.501       NO       
    P000524_A_1-NOSTOPUOMI_V2_FEM_ST-1.691       0.00620013          28.6754          112.486       NO       
    P000524_A_1-NOSTOPUOMI_V2_FEM_ST-1.692        0.0061851          28.7639          112.479       NO       
    P000524_A_1-NOSTOPUOMI_V2_FEM_ST-1.693       0.00616481          28.7396          112.501       NO       
    P000524_A_1-NOSTOPUOMI_V2_FEM_ST-1.694      0.000450136          5.04245          167.932       NO       
    P000524_A_1-NOSTOPUOMI_V2_FEM_ST-1.695         0.012371          38.8236          90.8705       NO       
    P000524_A_1-NOSTOPUOMI_V2_FEM_ST-1.696        0.0123297          38.9074          90.9043       NO       
    P000524_A_1-NOSTOPUOMI_V2_FEM_ST-1.697        0.0581249           3.3325          173.954       NO       
    P000524_A_1-NOSTOPUOMI_V2_FEM_ST-1.698        0.0578929          6.04538          90.9386       NO       
    P000524_A_1-NOSTOPUOMI_V2_FEM_ST-1.699        0.0124041          3.21042          106.276       NO       
    P000524_A_1-NOSTOPUOMI_V2_FEM_ST-1.700       0.00618549          28.6132          112.719       NO       
    P000524_A_1-NOSTOPUOMI_V2_FEM_ST-1.701       0.00620405          2.36618          112.499       NO       
    P000524_A_1-NOSTOPUOMI_V2_FEM_ST-1.702       0.00618508          28.7639          112.479       NO       
    P000524_A_1-NOSTOPUOMI_V2_FEM_ST-1.703       0.00616484           28.792          112.453       NO       
    P000524_A_1-NOSTOPUOMI_V2_FEM_ST-1.704       0.00617384          2.36603          112.501       NO       
    P000524_A_1-NOSTOPUOMI_V2_FEM_ST-1.705        0.0123297          38.8133          92.0571       NO       
    P000524_A_1-NOSTOPUOMI_V2_FEM_ST-1.706        0.0578929          6.03428          90.9423       NO       
    P000524_A_1-NOSTOPUOMI_V2_FEM_ST-1.707       0.00618506          28.7411          112.499       NO       
    P000524_A_1-NOSTOPUOMI_V2_FEM_ST-1.708        0.0124081          38.8873          90.3606       NO       
    P000524_A_1-NOSTOPUOMI_V2_FEM_ST-1.709         0.012371          38.8236          90.8705       NO       
    P000524_A_1-NOSTOPUOMI_V2_FEM_ST-1.710          0.01239          3.08766          112.473       NO       
    P000524_A_1-NOSTOPUOMI_V2_FEM_ST-1.711        0.0124202          38.9126          89.6394       NO       
    P000524_A_1-NOSTOPUOMI_V2_FEM_ST-1.712       0.00616481          28.7396          112.501       NO       
    P000524_A_1-NOSTOPUOMI_V2_FEM_ST-1.713       0.00617384          2.36603          112.501       NO       
    P000524_A_1-NOSTOPUOMI_V2_FEM_ST-1.714       0.00620017          28.6845          112.587       NO       
    P000524_A_1-NOSTOPUOMI_V2_FEM_ST-1.715         0.058125          6.04891              90.       NO       
    P000524_A_1-NOSTOPUOMI_V2_FEM_ST-1.716        0.0124081          38.8263          90.3606       NO       
    P000524_A_1-NOSTOPUOMI_V2_FEM_ST-1.717       0.00620405          28.6747          112.512       NO       
    P000524_A_1-NOSTOPUOMI_V2_FEM_ST-1.718        0.0061851          28.7639          112.479       NO       
    P000524_A_1-NOSTOPUOMI_V2_FEM_ST-1.719       0.00621054          28.7257           112.52       NO       
    P000524_A_1-NOSTOPUOMI_V2_FEM_ST-1.720        0.0123702          38.8412          91.3406       NO       
    P000524_A_1-NOSTOPUOMI_V2_FEM_ST-1.721       0.00621674          2.36505          112.501       NO       
    P000524_A_1-NOSTOPUOMI_V2_FEM_ST-1.722         0.012371          38.8889          90.8705       NO       
    P000524_A_1-NOSTOPUOMI_V2_FEM_ST-1.723       0.00616479          28.7396          112.501       NO       
    P000524_A_1-NOSTOPUOMI_V2_FEM_ST-1.724        0.0578929          6.03428          90.9423       NO       
    P000524_A_1-NOSTOPUOMI_V2_FEM_ST-1.725       0.00620406          28.6747          112.512       NO       
    P000524_A_1-NOSTOPUOMI_V2_FEM_ST-1.726        0.0123702          38.8827          90.8267       NO       
    P000524_A_1-NOSTOPUOMI_V2_FEM_ST-1.727       0.00618507          28.7639          112.479       NO       
    P000524_A_1-NOSTOPUOMI_V2_FEM_ST-1.728       0.00617383          2.36602          112.501       NO       
    P000524_A_1-NOSTOPUOMI_V2_FEM_ST-1.729      0.000450135          5.04245          167.931       NO       
    P000524_A_1-NOSTOPUOMI_V2_FEM_ST-1.730        0.0123297          38.8133          92.0571       NO       
[...]
   P000524_A_1-NOSTOPUOMI_V2_FEM_ST-1.5542        0.0191878          24.5744          115.437       NO       
   P000524_A_1-NOSTOPUOMI_V2_FEM_ST-1.5549      0.000502322          7.01334          168.383       NO       
   P000524_A_1-NOSTOPUOMI_V2_FEM_ST-1.5552       0.00113962          16.5163          121.709       NO       
   P000524_A_1-NOSTOPUOMI_V2_FEM_ST-1.5554       0.00148956          26.6418          116.845       NO       
   P000524_A_1-NOSTOPUOMI_V2_FEM_ST-1.5556       0.00862536          10.4197          160.275       NO       
   P000524_A_1-NOSTOPUOMI_V2_FEM_ST-1.5559       0.00112988          10.4444          163.964       NO       
   P000524_A_1-NOSTOPUOMI_V2_FEM_ST-1.5561       0.00040255          13.5856          123.226       NO       
   P000524_A_1-NOSTOPUOMI_V2_FEM_ST-1.5562      0.000558654          10.5538          116.639       NO       
   P000524_A_1-NOSTOPUOMI_V2_FEM_ST-1.5567        0.0787034            8.042          135.893       NO       
   P000524_A_1-NOSTOPUOMI_V2_FEM_ST-1.5568        0.0238295          6.54092          96.4368       NO       
   P000524_A_1-NOSTOPUOMI_V2_FEM_ST-1.5577      0.000161956          10.9232          133.184       NO       
   P000524_A_1-NOSTOPUOMI_V2_FEM_ST-1.5580        0.0109278           10.467          148.887       NO       
   P000524_A_1-NOSTOPUOMI_V2_FEM_ST-1.5581        0.0109423          5.04245          172.047       NO       
   P000524_A_1-NOSTOPUOMI_V2_FEM_ST-1.5582      0.000103773          6.70594          128.801       NO       
   P000524_A_1-NOSTOPUOMI_V2_FEM_ST-1.5583      0.000297128          42.2727          163.551       NO       
   P000524_A_1-NOSTOPUOMI_V2_FEM_ST-1.5585      0.000311494          43.4296          162.371       NO       
   P000524_A_1-NOSTOPUOMI_V2_FEM_ST-1.5593       0.00256509           10.087          155.733       NO       
   P000524_A_1-NOSTOPUOMI_V2_FEM_ST-1.5605       0.00248563          8.01006          160.932       NO       
   P000524_A_1-NOSTOPUOMI_V2_FEM_ST-1.5606       0.00310415          8.67294          161.302       NO       
   P000524_A_1-NOSTOPUOMI_V2_FEM_ST-1.5608      0.000471296          15.2393          164.965       NO       
   P000524_A_1-NOSTOPUOMI_V2_FEM_ST-1.5610      0.000298282          15.1633          133.935       NO       
   P000524_A_1-NOSTOPUOMI_V2_FEM_ST-1.5620       0.00081682          5.66192          167.955       NO       
   P000524_A_1-NOSTOPUOMI_V2_FEM_ST-1.5625         0.138969          9.75546          111.262       NO       
   P000524_A_1-NOSTOPUOMI_V2_FEM_ST-1.5635       0.00438766          7.42571          160.308       NO       
   P000524_A_1-NOSTOPUOMI_V2_FEM_ST-1.5636       0.00626642           10.087          158.623       NO       
   P000524_A_1-NOSTOPUOMI_V2_FEM_ST-1.5641       0.00651333          9.26319           161.81       NO       
   P000524_A_1-NOSTOPUOMI_V2_FEM_ST-1.5643       0.00133703          4.53124           169.58       NO       
   P000524_A_1-NOSTOPUOMI_V2_FEM_ST-1.5645      0.000409586           3.1683            165.2       NO       
   P000524_A_1-NOSTOPUOMI_V2_FEM_ST-1.5648       0.00100003          16.6477          160.433       NO       
   P000524_A_1-NOSTOPUOMI_V2_FEM_ST-1.5656        0.0193124          10.1324           159.66       NO       
   P000524_A_1-NOSTOPUOMI_V2_FEM_ST-1.5657      0.000105398          5.25984          171.937       NO       
   P000524_A_1-NOSTOPUOMI_V2_FEM_ST-1.5661      0.000192914          5.04245           162.08       NO       
   P000524_A_1-NOSTOPUOMI_V2_FEM_ST-1.5662       0.00218989          7.95331          164.608       NO       
   P000524_A_1-NOSTOPUOMI_V2_FEM_ST-1.5665      0.000505622          10.8785          124.248       NO       
   P000524_A_1-NOSTOPUOMI_V2_FEM_ST-1.5666       0.00108978          10.8116          161.817       NO       
   P000524_A_1-NOSTOPUOMI_V2_FEM_ST-1.5670        0.0010027          5.94776           109.92       NO       
   P000524_A_1-NOSTOPUOMI_V2_FEM_ST-1.5671         0.113651          9.08301          91.6351       NO       
   P000524_A_1-NOSTOPUOMI_V2_FEM_ST-1.5675       0.00066747          42.4705          159.029       NO       
   P000524_A_1-NOSTOPUOMI_V2_FEM_ST-1.5676      0.000125067          9.08424             132.       NO       
   P000524_A_1-NOSTOPUOMI_V2_FEM_ST-1.5678        0.0676874          6.63257          91.8016       NO       
   P000524_A_1-NOSTOPUOMI_V2_FEM_ST-1.5689       0.00275741          19.0974          158.829       NO       
   P000524_A_1-NOSTOPUOMI_V2_FEM_ST-1.5690      0.000140028          5.04245          169.489       NO       
  
  
  *Step, name=Step-1, nlgeom=NO, perturbation
  *frequency, eigensolver=LANCZOS, normalization=MASS, sim=YES, acousticcoupling=ON
  *output, field, variable=PRESELECT
  *Step, name=matrix-step
  *Step, name=Step-1, nlgeom=NO, perturbation
  *Step, name=matrix-step
  *Step, name=Step-1, nlgeom=NO, perturbation
  *frequency, eigensolver=LANCZOS, normalization=MASS, sim=YES, acousticcoupling=ON
  *frequency, eigensolver=LANCZOS, normalization=MASS, sim=YES, acousticcoupling=ON
  *output, field, variable=PRESELECT
  *endstep
  *Step, name=matrix-step
  *matrixgenerate, stiffness, mass
  *matrixoutput, stiffness, format=COORDINATE, mass
  *endstep
  *Step, name=Step-1, nlgeom=NO, perturbation
  *frequency, eigensolver=LANCZOS, normalization=MASS, sim=YES, acousticcoupling=ON
  *frequency, eigensolver=LANCZOS, normalization=MASS, sim=YES, acousticcoupling=ON
  *endstep
  *Step, name=matrix-step
  *endstep



                            P R O B L E M   S I Z E


          NUMBER OF ELEMENTS IS                                  5690
          NUMBER OF NODES IS                                    11495
          NUMBER OF NODES DEFINED BY THE USER                   11495
          TOTAL NUMBER OF VARIABLES IN THE MODEL                34485
          (DEGREES OF FREEDOM PLUS MAX NO. OF ANY LAGRANGE MULTIPLIER
           VARIABLES. INCLUDE *PRINT,SOLVE=YES TO GET THE ACTUAL NUMBER.)



                              END OF USER INPUT PROCESSING



     JOB TIME SUMMARY
       USER TIME (SEC)      =  0.80000    
       SYSTEM TIME (SEC)    =  0.40000    
       TOTAL CPU TIME (SEC) =   1.2000    
       WALLCLOCK TIME (SEC) =          1
1

   Abaqus 2020                                  Date 05-kesä-2023   Time 12:42:21
   For use by OULUN YLIOPISTO under license from Dassault Systemes or its subsidiary.

                                                                                               STEP    1  INCREMENT    1
                                                                                          TIME COMPLETED IN THIS STEP   0.00    


                        S T E P       1     C A L C U L A T I O N   O F   E I G E N V A L U E S

                                            F O R   N A T U R A L   F R E Q U E N C I E S



                                                                                          

     THE LANCZOS EIGENSOLVER IS USED FOR THIS ANALYSIS
     SYSTEM DATA WILL BE WRITTEN TO THE .SIM FILE

     Abaqus WILL COMPUTE UNCOUPLED
      STRUCTURAL AND ACOUSTIC MODES
     NUMBER OF EIGENVALUES                     10
     HIGHEST FREQUENCY OF INTEREST                  1.00000E+18
     MAXIMUM NUMBER OF STEPS WITHIN RUN               35
     BLOCK SIZE FOR LANCZOS PROCEDURE                  7
     THE EIGENVECTORS ARE SCALED SO THAT 
      THE GENERALIZED MASS IN EACH VECTOR IS UNITY

     THIS IS A LINEAR PERTURBATION STEP.
     ALL LOADS ARE DEFINED AS CHANGE IN LOAD TO THE REFERENCE STATE



                    TOTAL MASS OF MODEL

                       124.6086    


                    LOCATION OF THE CENTER OF MASS OF THE MODEL

                       1.119895          3.0295199E-02     -2.6550489E-06


                    MOMENTS OF INERTIA ABOUT THE ORIGIN
                           I(XX)               I(YY)               I(ZZ)

                       1.274606           250.8961           250.8793    


                    PRODUCTS OF INERTIA ABOUT THE ORIGIN
                           I(XY)               I(XZ)               I(YZ)

                      -4.827774          1.2466542E-04     -4.8575106E-05


                    MOMENTS OF INERTIA ABOUT THE CENTER OF MASS
                           I(XX)               I(YY)               I(ZZ)

                       1.160240           94.61637           94.48529    


                    PRODUCTS OF INERTIA ABOUT THE CENTER OF MASS
                           I(XY)               I(XZ)               I(YZ)

                     -0.6001239         -2.4584274E-04     -5.8598028E-05
  
                   M E M O R Y   E S T I M A T E
  
 PROCESS      FLOATING PT       MINIMUM MEMORY        MEMORY TO
              OPERATIONS           REQUIRED          MINIMIZE I/O
             PER ITERATION           (MB)               (MB)
  
     1          2.37E+09               35                343
  
 NOTE:
      (1) SINCE ABAQUS DOES NOT PRE-ALLOCATE MEMORY AND ONLY ALLOCATES MEMORY AS NEEDED DURING THE ANALYSIS,
          THE MEMORY REQUIREMENT PRINTED HERE CAN ONLY BE VIEWED AS A GENERAL GUIDELINE BASED ON THE BEST
          KNOWLEDGE AVAILABLE AT THE BEGINNING OF A STEP BEFORE THE SOLUTION PROCESS HAS BEGUN.
      (2) THE ESTIMATE IS NORMALLY UPDATED AT THE BEGINNING OF EVERY STEP. IT IS THE MAXIMUM VALUE OF THE
          ESTIMATE FROM THE CURRENT STEP TO THE LAST STEP OF THE ANALYSIS, WITH UNSYMMETRIC SOLUTION TAKEN
          INTO ACCOUNT IF APPLICABLE. 
      (3) SINCE THE ESTIMATE IS BASED ON THE ACTIVE DEGREES OF FREEDOM IN THE FIRST ITERATION OF THE 
          CURRENT STEP, THE MEMORY ESTIMATE MIGHT BE SIGNIFICANTLY DIFFERENT THAN ACTUAL USAGE FOR 
          PROBLEMS WITH SUBSTANTIAL CHANGES IN ACTIVE DEGREES OF FREEDOM BETWEEN STEPS (OR EVEN WITHIN
          THE SAME STEP). EXAMPLES ARE: PROBLEMS WITH SIGNIFICANT CONTACT CHANGES, PROBLEMS WITH MODEL
          CHANGE, PROBLEMS WITH BOTH STATIC STEP AND STEADY STATE DYNAMIC PROCEDURES WHERE ACOUSTIC 
          ELEMENTS WILL ONLY BE ACTIVATED IN THE STEADY STATE DYNAMIC STEPS.
      (4) FOR MULTI-PROCESS EXECUTION, THE ESTIMATED VALUE OF FLOATING POINT OPERATIONS FOR EACH PROCESS
          IS BASED ON AN INITIAL SCHEDULING OF OPERATIONS AND MIGHT NOT REFLECT THE ACTUAL FLOATING 
          POINT OPERATIONS COMPLETED ON EACH PROCESS. OPERATIONS ARE DYNAMICALLY BALANCED DURING EXECUTION, 
          SO THE ACTUAL BALANCE OF OPERATIONS BETWEEN PROCESSES IS EXPECTED TO BE BETTER THAN THE ESTIMATE
          PRINTED HERE.
      (5) THE UPPER LIMIT OF MEMORY THAT CAN BE ALLOCATED BY ABAQUS WILL IN GENERAL DEPEND ON THE VALUE OF
          THE "MEMORY" PARAMETER AND THE AMOUNT OF PHYSICAL MEMORY AVAILABLE ON THE MACHINE. PLEASE SEE
          THE "ABAQUS ANALYSIS USER'S MANUAL" FOR MORE DETAILS. THE ACTUAL USAGE OF MEMORY AND OF DISK
          SPACE FOR SCRATCH DATA WILL DEPEND ON THIS UPPER LIMIT AS WELL AS THE MEMORY REQUIRED TO MINIMIZE
          I/O. IF THE MEMORY UPPER LIMIT IS GREATER THAN THE MEMORY REQUIRED TO MINIMIZE I/O, THEN THE ACTUAL
          MEMORY USAGE WILL BE CLOSE TO THE ESTIMATED "MEMORY TO MINIMIZE I/O" VALUE, AND THE SCRATCH DISK
          USAGE WILL BE CLOSE-TO-ZERO; OTHERWISE, THE ACTUAL MEMORY USED WILL BE CLOSE TO THE PREVIOUSLY
          MENTIONED MEMORY LIMIT, AND THE SCRATCH DISK USAGE WILL BE ROUGHLY PROPORTIONAL TO THE DIFFERENCE
          BETWEEN THE ESTIMATED "MEMORY TO MINIMIZE I/O" AND THE MEMORY UPPER LIMIT. HOWEVER ACCURATE
          ESTIMATE OF THE SCRATCH DISK SPACE IS NOT POSSIBLE.
      (6) USING "*RESTART, WRITE" CAN GENERATE A LARGE AMOUNT OF DATA WRITTEN IN THE WORK DIRECTORY.


                              E I G E N V A L U E    O U T P U T     

 MODE NO      EIGENVALUE              FREQUENCY         GENERALIZED MASS   COMPOSITE MODAL DAMPING            
                             (RAD/TIME)   (CYCLES/TIME)


       1*    -3.22845E-04     0.0000         0.0000         1.0000         0.0000    
       2*    -2.22740E-04     0.0000         0.0000         1.0000         0.0000    
       3*     1.24255E-05    3.52498E-03    5.61019E-04     1.0000         0.0000    
       4*     3.35516E-05    5.79237E-03    9.21885E-04     1.0000         0.0000    
       5*     5.46743E-05    7.39421E-03    1.17682E-03     1.0000         0.0000    
       6*     1.44060E-04    1.20025E-02    1.91026E-03     1.0000         0.0000    
       7      4.51815E+05     672.17         106.98         1.0000         0.0000    
       8      5.10808E+05     714.71         113.75         1.0000         0.0000    
       9      3.66484E+06     1914.4         304.68         1.0000         0.0000    
      10      4.01418E+06     2003.5         318.87         1.0000         0.0000    

 ***NOTE: EIGENVALUES MARKED WITH A * APPEAR TO BE RIGID BODY MODES




          P A R T I C I P A T I O N   F A C T O R S

 MODE NO    X-COMPONENT    Y-COMPONENT    Z-COMPONENT    X-ROTATION     Y-ROTATION     Z-ROTATION 

       1      0.58975         3.4799         3.7246       -0.46359        -8.7467         8.7438    
       2     -0.72672        -3.1284         4.2345        0.39135        -11.519        -8.3034    
       3      -2.1380         6.7181         3.3946       -0.20656        -1.0280         1.8075    
       4      -1.9588        -5.4850         7.8218        0.11085        -4.4264        -4.4019    
       5       10.324         1.3803         3.1780        0.28377        -2.4713        0.68862    
       6       2.9567        -5.0585        -3.1624       -0.87810         3.8666        -9.0754    
       7     -5.76151E-10   -2.23745E-09    8.52795E-12    2.56801E-10   -4.19485E-11   -4.71757E-09
       8     -2.10874E-11   -2.26650E-10    1.86359E-09   -9.11736E-11   -4.81353E-09   -5.28039E-10
       9     -3.12889E-11   -2.57862E-11   -2.47470E-12    2.20147E-11   -2.56061E-12   -2.26300E-10
      10      3.15525E-12   -3.76258E-11   -4.74711E-11    7.74300E-12    2.63680E-10   -8.64212E-11


                    E F F E C T I V E   M A S S

 MODE NO    X-COMPONENT    Y-COMPONENT    Z-COMPONENT    X-ROTATION     Y-ROTATION     Z-ROTATION 

       1      0.34780         12.110         13.873        0.21492         76.505         76.453    
       2      0.52812         9.7866         17.931        0.15315         132.68         68.946    
       3       4.5711         45.133         11.523        4.26653E-02     1.0569         3.2670    
       4       3.8368         30.086         61.181        1.22874E-02     19.593         19.376    
       5       106.58         1.9052         10.100        8.05229E-02     6.1074        0.47420    
       6       8.7420         25.588         10.001        0.77106         14.950         82.362    
       7      3.31950E-19    5.00617E-18    7.27259E-23    6.59468E-20    1.75968E-21    2.22555E-17
       8      4.44677E-22    5.13703E-20    3.47299E-18    8.31263E-21    2.31701E-17    2.78825E-19
       9      9.78996E-22    6.64930E-22    6.12414E-24    4.84646E-22    6.55672E-24    5.12118E-20
      10      9.95560E-24    1.41570E-21    2.25350E-21    5.99540E-23    6.95270E-20    7.46863E-21

 TOTAL         124.61         124.61         124.61         1.2746         250.90         250.88    
1

   Abaqus 2020                                  Date 05-kesä-2023   Time 12:42:25
   For use by OULUN YLIOPISTO under license from Dassault Systemes or its subsidiary.

                                                                                               STEP    2  INCREMENT    1
                                                                                          TIME COMPLETED IN THIS STEP   0.00    
 


                        S T E P       2     M A T R I X   G E N E R A T E
 
  THE FOLLOWING GLOBAL MATRICES WILL BE GENERATED AND WRITTEN TO liftboom-free-050623_X2.sim

    STIFFNESS
    MASS
 
  THE MASS MATRIX PROPERTIES: CONSISTENT MASS MATRIX
 
  IF MULTI-POINT CONSTRAINTS ARE SPECIFIED IN THE MODEL, THEY WILL BE APPLIED
 
  THE FOLLOWING GLOBAL MATRICES WILL BE WRITTEN TO THE FOLLOWING TEXT FILES

    STIFFNESS          TO liftboom-free-050623_STIF2.mtx
    MASS               TO liftboom-free-050623_MASS2.mtx
 
  MATRIX OUTPUT FORMAT - COORDINATE
  
                   M E M O R Y   E S T I M A T E
  
 PROCESS      FLOATING PT       MINIMUM MEMORY        MEMORY TO
              OPERATIONS           REQUIRED          MINIMIZE I/O
             PER ITERATION           (MB)               (MB)
  
     1          0.00E+00               26                 65
  
 NOTE:
      (1) SINCE ABAQUS DOES NOT PRE-ALLOCATE MEMORY AND ONLY ALLOCATES MEMORY AS NEEDED DURING THE ANALYSIS,
          THE MEMORY REQUIREMENT PRINTED HERE CAN ONLY BE VIEWED AS A GENERAL GUIDELINE BASED ON THE BEST
          KNOWLEDGE AVAILABLE AT THE BEGINNING OF A STEP BEFORE THE SOLUTION PROCESS HAS BEGUN.
      (2) THE ESTIMATE IS NORMALLY UPDATED AT THE BEGINNING OF EVERY STEP. IT IS THE MAXIMUM VALUE OF THE
          ESTIMATE FROM THE CURRENT STEP TO THE LAST STEP OF THE ANALYSIS, WITH UNSYMMETRIC SOLUTION TAKEN
          INTO ACCOUNT IF APPLICABLE. 
      (3) SINCE THE ESTIMATE IS BASED ON THE ACTIVE DEGREES OF FREEDOM IN THE FIRST ITERATION OF THE 
          CURRENT STEP, THE MEMORY ESTIMATE MIGHT BE SIGNIFICANTLY DIFFERENT THAN ACTUAL USAGE FOR 
          PROBLEMS WITH SUBSTANTIAL CHANGES IN ACTIVE DEGREES OF FREEDOM BETWEEN STEPS (OR EVEN WITHIN
          THE SAME STEP). EXAMPLES ARE: PROBLEMS WITH SIGNIFICANT CONTACT CHANGES, PROBLEMS WITH MODEL
          CHANGE, PROBLEMS WITH BOTH STATIC STEP AND STEADY STATE DYNAMIC PROCEDURES WHERE ACOUSTIC 
          ELEMENTS WILL ONLY BE ACTIVATED IN THE STEADY STATE DYNAMIC STEPS.
      (4) FOR MULTI-PROCESS EXECUTION, THE ESTIMATED VALUE OF FLOATING POINT OPERATIONS FOR EACH PROCESS
          IS BASED ON AN INITIAL SCHEDULING OF OPERATIONS AND MIGHT NOT REFLECT THE ACTUAL FLOATING 
          POINT OPERATIONS COMPLETED ON EACH PROCESS. OPERATIONS ARE DYNAMICALLY BALANCED DURING EXECUTION, 
          SO THE ACTUAL BALANCE OF OPERATIONS BETWEEN PROCESSES IS EXPECTED TO BE BETTER THAN THE ESTIMATE
          PRINTED HERE.
      (5) THE UPPER LIMIT OF MEMORY THAT CAN BE ALLOCATED BY ABAQUS WILL IN GENERAL DEPEND ON THE VALUE OF
          THE "MEMORY" PARAMETER AND THE AMOUNT OF PHYSICAL MEMORY AVAILABLE ON THE MACHINE. PLEASE SEE
          THE "ABAQUS ANALYSIS USER'S MANUAL" FOR MORE DETAILS. THE ACTUAL USAGE OF MEMORY AND OF DISK
          SPACE FOR SCRATCH DATA WILL DEPEND ON THIS UPPER LIMIT AS WELL AS THE MEMORY REQUIRED TO MINIMIZE
          I/O. IF THE MEMORY UPPER LIMIT IS GREATER THAN THE MEMORY REQUIRED TO MINIMIZE I/O, THEN THE ACTUAL
          MEMORY USAGE WILL BE CLOSE TO THE ESTIMATED "MEMORY TO MINIMIZE I/O" VALUE, AND THE SCRATCH DISK
          USAGE WILL BE CLOSE-TO-ZERO; OTHERWISE, THE ACTUAL MEMORY USED WILL BE CLOSE TO THE PREVIOUSLY
          MENTIONED MEMORY LIMIT, AND THE SCRATCH DISK USAGE WILL BE ROUGHLY PROPORTIONAL TO THE DIFFERENCE
          BETWEEN THE ESTIMATED "MEMORY TO MINIMIZE I/O" AND THE MEMORY UPPER LIMIT. HOWEVER ACCURATE
          ESTIMATE OF THE SCRATCH DISK SPACE IS NOT POSSIBLE.
      (6) USING "*RESTART, WRITE" CAN GENERATE A LARGE AMOUNT OF DATA WRITTEN IN THE WORK DIRECTORY.
  


          THE ANALYSIS HAS BEEN COMPLETED



                              ANALYSIS COMPLETE
                              WITH      1 WARNING MESSAGES ON THE DAT FILE



     JOB TIME SUMMARY
       USER TIME (SEC)      =   5.3000    
       SYSTEM TIME (SEC)    =  0.90000    
       TOTAL CPU TIME (SEC) =   6.2000    
       WALLCLOCK TIME (SEC) =          7
