*Heading
** Job name: liftboom-free-050623 Model name: Model-1
** Generated by: Abaqus/CAE 2020
*Preprint, echo=NO, model=NO, history=NO, contact=NO
**
** PARTS
**
*Part, name=P000524_A_1-Nostopuomi_v2_fem_st
*Node
      1,  0.591041446, 0.0138479015, 0.0799999982
      2,  0.589060783, 0.0319077261, 0.0799999982
      3,  0.589060783, 0.0319077261,  0.100000001
      4,  0.591041446, 0.0138479015,  0.100000001
      5,  0.550000012,  0.112277411,  0.074000001
      6,  0.550000012,  0.118278228, 0.0680000037
      7,  0.620000005,  0.117126912, 0.0680000037
      8,  0.620000005,  0.111126103,  0.074000001
      9,  0.550000012, -0.0469774157,  0.074000001
     10,  0.620000005, -0.0458260998,  0.074000001
     11,  0.550000012, -0.0529782251, 0.0680000037
     12,  0.620000005, -0.0518269129, 0.0680000037
     13,  0.550000012, -0.0529782251, -0.0680000037
     14,  0.620000005, -0.0518269129, -0.0680000037
     15,  0.550000012, -0.0469774157, -0.074000001
     16,  0.620000005, -0.0458260998, -0.074000001
     17,  0.550000012,  0.112277411, -0.074000001
     18,  0.620000005,  0.111126103, -0.074000001
     19,  0.550000012,  0.118278228, -0.0680000037
     20,  0.620000005,  0.117126912, -0.0680000037
** ... 11475 like lines cut
*Element, type=C3D10
  1,   48,  510,   41, 1242, 1952, 1951, 1950, 1954, 1953, 1955
  2, 1851,  506,  518,  519, 1958, 1957, 1956, 1960, 1959, 1961
  3,  528,   48,   38,  511, 1964, 1963, 1962, 1966, 1965, 1967
  4,  535,  511,   48,  528, 1969, 1965, 1968, 1970, 1966, 1964
  5,   38,   15,   16, 1242, 1973, 1972, 1971, 1975, 1974, 1976
  6, 1852,   48,  510,  511, 1978, 1952, 1977, 1979, 1965, 1980
  7,   48,   38,  511, 1852, 1963, 1967, 1965, 1978, 1981, 1979
  8,   10,   35, 1235,    9, 1984, 1983, 1982, 1986, 1985, 1987
  9,    9,  505,   35,  504, 1989, 1988, 1985, 1991, 1990, 1992
 10,  506,  507,  519, 1851, 1994, 1993, 1959, 1958, 1995, 1960
 11,  507,   13, 1851,  506, 1997, 1996, 1995, 1994, 1998, 1958
 12,   11,   34, 1853,   12, 2001, 2000, 1999, 2003, 2002, 2004
 13, 1854,  505,  521,   12, 2007, 2006, 2005, 2009, 2008, 2010
 14,   34,  504,   11,  520, 2012, 2011, 2001, 2014, 2013, 2015
 15, 1854,  520,  521,   35, 2017, 2016, 2005, 2019, 2018, 2020
 16, 1851,  518,   32,  519, 1956, 2022, 2021, 1960, 1961, 2023
 17, 1851,   33,  519,   32, 2025, 2024, 1960, 2021, 2026, 2023
 18,   33,  507,   13, 1851, 2028, 1997, 2027, 2025, 1995, 1996
 19,   14,   33,  507,   13, 2030, 2028, 2029, 2031, 2027, 1997
 20, 1853,  507,  519,  506, 2033, 1993, 2032, 2034, 1994, 1959
** ... 5670 like lines cut
*Nset, nset=Set-8, generate
     1,  11495,      1
*Elset, elset=Set-8, generate
    1,  5690,     1
*Nset, nset=Set-9, generate
     1,  11495,      1
*Elset, elset=Set-9, generate
    1,  5690,     1
*Nset, nset=Set-10, generate
     1,  11495,      1
*Elset, elset=Set-10, generate
    1,  5690,     1
** Section: Section-1
*Solid Section, elset=Set-10, material=Material-1
,
*End Part
**  
**
** ASSEMBLY
**
*Assembly, name=Assembly
**  
*Instance, name=P000524_A_1-Nostopuomi_v2_fem_st-1, part=P000524_A_1-Nostopuomi_v2_fem_st
*End Instance
**  
*End Assembly
** 
** MATERIALS
** 
*Material, name=Material-1
*Density
7850.,
*Elastic
 2.1e+11, 0.3
** ----------------------------------------------------------------
** 
** STEP: Step-1
** 
*Step, name=Step-1, nlgeom=NO, perturbation
*Frequency, eigensolver=Lanczos, sim, acoustic coupling=on, normalization=mass
10, , , , , 
** 
** OUTPUT REQUESTS
** 
*Restart, write, frequency=0
** 
** FIELD OUTPUT: F-Output-1
** 
*Output, field, variable=PRESELECT
*End Step
** ----------------------------------------------------------------
** 
** 
** STEP: Matrix gen
*Step, name=matrix-step
*Matrix generate, stiffness, mass
*Matrix output, stiffness, mass, format=coordinate
*End Step