*Heading
** Job name: LiftBoom-freebody Model name: Model-1
** Generated by: Abaqus/CAE 2020
*Preprint, echo=NO, model=NO, history=NO, contact=NO
**
** PARTS
**
*Part, name=P000524_A_1-Nostopuomi_v2
*Node
      1,   2.32337332,  0.074000001, 0.0221318603
      2,   2.32337332,  0.074000001, -0.0221318603
      3,   2.32337332,  0.061999999, -0.0221318603
      4,   2.32337332,  0.061999999, 0.0221318603
      5,   2.32835793, 0.0680000037, 0.0592526272
      6,   2.32835793, 0.0799999982, 0.0472510085
      7,   1.17999995, 0.0799999982,  0.066115208
      8,   1.17999995, 0.0680000037, 0.0781168267
      9,   2.32835793, 0.0799999982, -0.0472510085
     10,   1.17999995, 0.0799999982, -0.066115208
     11,   2.32835793, 0.0680000037, -0.0592526272
     12,   1.17999995, 0.0680000037, -0.0781168267
     13,   2.32835793, -0.0680000037, -0.0592526272
     14,   1.17999995, -0.0680000037, -0.0781168267
     15,   2.32835793, -0.0799999982, -0.0472510085
     16,   1.17999995, -0.0799999982, -0.066115208
     17,   2.32835793, -0.0799999982, 0.0472510085
     18,   1.17999995, -0.0799999982,  0.066115208
     19,   2.32835793, -0.0680000037, 0.0592526272
     20,   1.17999995, -0.0680000037, 0.0781168267
** ... 10090 like lines cut
*Element, type=C3D10
  1, 1108, 1153,  585, 1154, 1718, 1717, 1716, 1720, 1719, 1721
  2,   49,   42,   46, 1589, 1724, 1723, 1722, 1726, 1725, 1727
  3,  668,   48,  665,  666, 1730, 1729, 1728, 1732, 1731, 1733
  4, 1589,   49,  668,   46, 1726, 1735, 1734, 1727, 1722, 1736
  5, 1108, 1153,  543,   21, 1718, 1738, 1737, 1740, 1739, 1741
  6, 1589,   42,   46,   43, 1725, 1723, 1727, 1743, 1742, 1744
  7,  547,  617,  625, 1590, 1747, 1746, 1745, 1749, 1748, 1750
  8,  617, 1590,  547,  548, 1748, 1749, 1747, 1752, 1751, 1753
  9,   37,  646,  591,  645, 1756, 1755, 1754, 1758, 1757, 1759
 10,  638,   36,   21, 1153, 1762, 1761, 1760, 1764, 1763, 1739
 11,  591, 1591,  646,  592, 1766, 1765, 1755, 1768, 1767, 1769
 12,   20,  646,  591,   37, 1771, 1755, 1770, 1772, 1756, 1754
 13, 1592,  568,   12,  558, 1775, 1774, 1773, 1777, 1776, 1778
 14,   12, 1592, 1593,  568, 1773, 1780, 1779, 1774, 1775, 1781
 15, 1135, 1134, 1594, 1100, 1784, 1783, 1782, 1786, 1785, 1787
 16, 1590,  547,  548,  533, 1749, 1753, 1751, 1789, 1788, 1790
 17, 1595, 1100,  567,   14, 1793, 1792, 1791, 1795, 1794, 1796
 18,  568,   14, 1595,  605, 1798, 1795, 1797, 1800, 1799, 1801
 19, 1594, 1592, 1593, 1135, 1803, 1780, 1802, 1782, 1804, 1805
 20, 1596, 1594, 1100, 1595, 1807, 1787, 1806, 1809, 1808, 1793
** ... 5013 like lines cut
*Nset, nset=InitiallyInvalid
 385, 386
*Nset, nset=Set-21, generate
     1,  10110,      1
*Elset, elset=Set-21, generate
    1,  5033,     1
** Section: Section-1
*Solid Section, elset=Set-21, material=Material-1
,
*End Part
**  
**
** ASSEMBLY
**
*Assembly, name=Assembly
**  
*Instance, name=P000524_A_1-Nostopuomi_v2-1, part=P000524_A_1-Nostopuomi_v2
*End Instance
**  
*End Assembly
** 
** MATERIALS
** 
*Material, name=Material-1
*Density
7850.,
*Elastic
 2.1e+11, 0.3
** ----------------------------------------------------------------
** 
** STEP: Step-1
** 
*Step, name=Step-1, nlgeom=NO, perturbation
*Frequency, eigensolver=Lanczos, sim, acoustic coupling=on, normalization=mass
15, , , , , 
** 
** OUTPUT REQUESTS
** 
*Restart, write, frequency=0
** 
** FIELD OUTPUT: F-Output-1
** 
*Output, field, variable=PRESELECT
*End Step
** ----------------------------------------------------------------
** 
** 
** STEP: Matrix gen
*Step, name=matrix-step
*Matrix generate, stiffness, mass
*Matrix output, stiffness, mass, format=coordinate
*End Step